Circuit: * Z:\media\salim\home2\salim\KiCad\AM_FM_Transceiver\LTSpice\Test_AM_Tansceiver.asc

R1: both pins shorted together -- ignoring.
Direct Newton iteration failed to find .op point.  (Use ".option noopiter" to skip.)
Starting Gmin stepping
Gmin = 10
Gmin = 1.07374
vernier = 0.5
vernier = 0.25
vernier = 0.125
vernier = 0.0625
Gmin = 1.13883
vernier = 0.03125
vernier = 0.015625
vernier = 0.0208333
Gmin = 1.1053
vernier = 0.0277778
vernier = 0.0138889
vernier = 0.00694444
Gmin = 1.07695
vernier = 0.00925925
vernier = 0.0123457
Gmin = 1.05193
vernier = 0.00617283
vernier = 0.00308642
vernier = 0.00411522
Gmin = 1.04358
vernier = 0.00548696
Gmin = 1.03114
vernier = 0.00274348
vernier = 0.00137174
vernier = 0.00182899
Gmin = 1.02937
vernier = 0.00243865
vernier = 0.00325153
Gmin = 1.02338
vernier = 0.00162576
vernier = 0.000812882
vernier = 0.00108384
Gmin = 1.02234
vernier = 0.00144512
vernier = 0.00192683
Gmin = 1.01881
vernier = 0.000963415
vernier = 0.000481708
vernier = 0.000642277
Gmin = 1.01819
vernier = 0.000856369
vernier = 0.00114182
Gmin = 1.01611
vernier = 0.000570912
vernier = 0.000428184
Gmin = 1.01462
vernier = 0.000570912
vernier = 0.000761216
Gmin = 1.01315
vernier = 0.00101495
vernier = 0.000507477
Gmin = 0
Gmin stepping failed

Starting source stepping with srcstepmethod=0
Source Step = 3.0303%
Source Step = 33.3333%
Source Step = 63.6364%
Source Step = 93.9394%
Source stepping succeeded in finding the operating point.

Heightened Def Con from 9.8876e-07 to 9.8876e-07
Heightened Def Con from 1.72445e-06 to 1.72445e-06
Heightened Def Con from 1.72445e-06 to 1.72445e-06
Heightened Def Con from 1.72445e-06 ++to 1.72445e-06
Heightened Def Con from 1.72445e-06 to 1.72445e-06
Heightened Def Con from 1.72445e-06 +++++++++to 1.72445e-06
Heightened Def Con from 1.72445e-06 to 1.72445e-06
Heightened Def Con from 3.51513e-06 to 3.51513e-06
Heightened Def Con from 3.51513e-06 +++to 3.51513e-06
Heightened Def Con from 3.51513e-06 to 3.51513e-06
Heightened Def Con from 3.51513e-06 to 3.51513e-06
Heightened Def Con from 3.51513e-06 to 3.51513e-06
Heightened Def Con from 3.51513e-06 ++++++++++to 3.51513e-06
Heightened Def Con from 3.51513e-06 +++++++++to 3.51513e-06
Heightened Def Con from 5.90846e-06 to 5.90846e-06
Heightened Def Con from 5.90846e-06 to 5.90846e-06
Heightened Def Con from 5.90846e-06 to 5.90846e-06
Heightened Def Con from 1.17538e-05 +++to 1.17538e-05
Heightened Def Con from 1.19534e-05 to 1.19534e-05
Heightened Def Con from 1.19534e-05 ++++to 1.19534e-05
Heightened Def Con from 1.19534e-05 +++to 1.19534e-05
Heightened Def Con from 1.21537e-05 ++++to 1.21537e-05
Heightened Def Con from 1.21537e-05 to 1.21537e-05
Heightened Def Con from 1.37528e-05 to 1.37528e-05
Heightened Def Con from 1.4953e-05 to 1.4953e-05
Heightened Def Con from 1.95531e-05 to 1.95531e-05
Heightened Def Con from 1.95531e-05 to 1.95531e-05
Heightened Def Con from 2.07534e-05 +++++to 2.07534e-05
Heightened Def Con from 2.07534e-05 to 2.07534e-05
Heightened Def Con from 2.17538e-05 to 2.17538e-05
Heightened Def Con from 2.17538e-05 to 2.17538e-05
Heightened Def Con from 2.37541e-05 to 2.37541e-05
Heightened Def Con from 2.37541e-05 to 2.37541e-05
Heightened Def Con from 2.37541e-05 +++++to 2.37541e-05
Heightened Def Con from 2.37541e-05 ++++++to 2.37541e-05
Heightened Def Con from 2.87551e-05 ++++++to 2.87551e-05
Heightened Def Con from 2.87551e-05 to 2.87551e-05
Heightened Def Con from 2.93027e-05 +++to 2.93027e-05
Heightened Def Con from 2.93027e-05 to 2.93027e-05
Heightened Def Con from 2.93027e-05 +to 2.93027e-05
Heightened Def Con from 2.93027e-05 +to 2.93027e-05
Heightened Def Con from 2.93027e-05 +++to 2.93027e-05
Heightened Def Con from 2.93027e-05 +++++to 2.93027e-05
Heightened Def Con from 2.93027e-05 +++to 2.93027e-05
Heightened Def Con from 2.93027e-05 +++++++++to 2.93027e-05
Heightened Def Con from 3.07029e-05 to 3.07029e-05
Heightened Def Con from 3.11029e-05 to 3.11029e-05
Heightened Def Con from 3.11029e-05 to 3.11029e-05
Heightened Def Con from 3.11029e-05 +++++to 3.11029e-05
Heightened Def Con from 3.11029e-05 +++to 3.11029e-05
Heightened Def Con from 3.11029e-05 +to 3.11029e-05
Heightened Def Con from 3.11029e-05 ++++++++to 3.11029e-05
Heightened Def Con from 3.11029e-05 to 3.11029e-05
Heightened Def Con from 3.1303e-05 ++to 3.1303e-05
Heightened Def Con from 3.27557e-05 to 3.27557e-05
Heightened Def Con from 3.49562e-05 ++++++to 3.49562e-05
Heightened Def Con from 3.57033e-05 to 3.57033e-05
Heightened Def Con from 3.79565e-05 to 3.79565e-05
Heightened Def Con from 3.79565e-05 to 3.79565e-05
Heightened Def Con from 4.17569e-05 to 4.17569e-05
Heightened Def Con from 4.29569e-05 to 4.29569e-05
Heightened Def Con from 4.29569e-05 +++++++to 4.29569e-05
Heightened Def Con from 4.41037e-05 +to 4.41037e-05
Heightened Def Con from 4.41037e-05 +++++++to 4.41037e-05
Heightened Def Con from 4.41037e-05 +++++++to 4.41037e-05
Heightened Def Con from 4.41037e-05 +++to 4.41037e-05
Heightened Def Con from 4.41037e-05 to 4.41037e-05
Heightened Def Con from 4.57569e-05 to 4.57569e-05
Heightened Def Con from 4.57569e-05 ++to 4.57569e-05
Heightened Def Con from 4.63568e-05 ++++++to 4.63568e-05
Heightened Def Con from 4.63568e-05 to 4.63568e-05
Heightened Def Con from 4.67568e-05 ++++++to 4.67568e-05
Heightened Def Con from 4.75569e-05 ++++++to 4.75569e-05
Heightened Def Con from 4.89037e-05 to 4.89037e-05
Heightened Def Con from 5.11564e-05 +to 5.11564e-05
Heightened Def Con from 5.21034e-05 +++to 5.21034e-05
Heightened Def Con from 5.21034e-05 to 5.21034e-05
Heightened Def Con from 5.21034e-05 ++++++to 5.21034e-05
Heightened Def Con from 5.21034e-05 +++++++++to 5.21034e-05
Heightened Def Con from 5.35561e-05 +++++++to 5.35561e-05
Heightened Def Con from 5.47559e-05 to 5.47559e-05
Heightened Def Con from 5.49032e-05 to 5.49032e-05
Heightened Def Con from 5.49032e-05 +++to 5.49032e-05
Heightened Def Con from 5.49032e-05 +++++++++to 5.49032e-05
Heightened Def Con from 5.49032e-05 to 5.49032e-05
Heightened Def Con from 5.57558e-05 to 5.57558e-05
Heightened Def Con from 5.75553e-05 to 5.75553e-05
Heightened Def Con from 5.75553e-05 to 5.75553e-05
Heightened Def Con from 5.85027e-05 to 5.85027e-05
Heightened Def Con from 5.85027e-05 +++++++to 5.85027e-05
Heightened Def Con from 5.85027e-05 ++++++++++to 5.85027e-05
Heightened Def Con from 5.89553e-05 to 5.89553e-05
Heightened Def Con from 5.97549e-05 +++++to 5.97549e-05
Heightened Def Con from 6.27543e-05 to 6.27543e-05
Heightened Def Con from 6.41539e-05 to 6.41539e-05
Heightened Def Con from 6.45018e-05 ++to 6.45018e-05
Heightened Def Con from 6.45018e-05 to 6.45018e-05
Heightened Def Con from 6.45018e-05 ++++++++to 6.45018e-05
Heightened Def Con from 6.97526e-05 to 6.97526e-05
Heightened Def Con from 6.97526e-05 to 6.97526e-05
Heightened Def Con from 7.09523e-05 to 7.09523e-05
Heightened Def Con from 7.35001e-05 ++to 7.35001e-05
Heightened Def Con from 7.35001e-05 to 7.35001e-05
Heightened Def Con from 7.37517e-05 to 7.37517e-05
Heightened Def Con from 7.39518e-05 to 7.39518e-05
Heightened Def Con from 7.39518e-05 to 7.39518e-05
Heightened Def Con from 7.39518e-05 to 7.39518e-05
Heightened Def Con from 7.51513e-05 to 7.51513e-05
Heightened Def Con from 7.51513e-05 to 7.51513e-05
Heightened Def Con from 7.51513e-05 to 7.51513e-05
Heightened Def Con from 7.53512e-05 to 7.53512e-05
Heightened Def Con from 7.53512e-05 to 7.53512e-05
Heightened Def Con from 7.53512e-05 to 7.53512e-05
Heightened Def Con from 7.5551e-05 ++++to 7.5551e-05
Heightened Def Con from 7.5551e-05 to 7.5551e-05
Heightened Def Con from 7.5551e-05 +to 7.5551e-05
Heightened Def Con from 7.5551e-05 to 7.5551e-05
Heightened Def Con from 7.57513e-05 to 7.57513e-05
Heightened Def Con from 7.57513e-05 to 7.57513e-05
Heightened Def Con from 7.73501e-05 to 7.73501e-05
Heightened Def Con from 7.73501e-05 ++++to 7.73501e-05
Heightened Def Con from 7.73501e-05 to 7.73501e-05
Heightened Def Con from 7.75493e-05 to 7.75493e-05
Heightened Def Con from 7.9348e-05 to 7.9348e-05
Heightened Def Con from 7.9348e-05 +to 7.9348e-05
Heightened Def Con from 7.9348e-05 to 7.9348e-05
Heightened Def Con from 8.09469e-05 to 8.09469e-05
Heightened Def Con from 8.12978e-05 to 8.12978e-05
Heightened Def Con from 8.17465e-05 +++++to 8.17465e-05
Heightened Def Con from 8.17465e-05 to 8.17465e-05
Heightened Def Con from 8.2146e-05 to 8.2146e-05
Heightened Def Con from 8.24974e-05 to 8.24974e-05
Heightened Def Con from 8.26973e-05 to 8.26973e-05
Heightened Def Con from 8.31456e-05 to 8.31456e-05
Heightened Def Con from 8.31456e-05 to 8.31456e-05
Heightened Def Con from 8.31456e-05 +to 8.31456e-05
Heightened Def Con from 8.31456e-05 +++++to 8.31456e-05
Heightened Def Con from 8.37451e-05 ++to 8.37451e-05
Heightened Def Con from 8.37451e-05 to 8.37451e-05
Heightened Def Con from 8.37451e-05 to 8.37451e-05
Heightened Def Con from 8.39449e-05 +++to 8.39449e-05
Heightened Def Con from 8.39449e-05 to 8.39449e-05
Heightened Def Con from 8.65429e-05 to 8.65429e-05
Heightened Def Con from 8.67426e-05 to 8.67426e-05
Heightened Def Con from 8.71424e-05 to 8.71424e-05
Heightened Def Con from 8.71424e-05 to 8.71424e-05
Heightened Def Con from 8.71424e-05 to 8.71424e-05
Heightened Def Con from 8.72191e-05 to 8.72191e-05
Heightened Def Con from 8.74123e-05 ++to 8.74123e-05
Heightened Def Con from 8.75423e-05 to 8.75423e-05
Heightened Def Con from 8.7696e-05 to 8.7696e-05
Heightened Def Con from 8.7742e-05 +to 8.7742e-05
Heightened Def Con from 8.7742e-05 to 8.7742e-05
Heightened Def Con from 8.86958e-05 to 8.86958e-05
Heightened Def Con from 8.86958e-05 to 8.86958e-05
Heightened Def Con from 8.87414e-05 to 8.87414e-05
Heightened Def Con from 8.88117e-05 to 8.88117e-05
Heightened Def Con from 8.88117e-05 to 8.88117e-05
Heightened Def Con from 8.88117e-05 ++to 8.88117e-05
Heightened Def Con from 8.88117e-05 to 8.88117e-05
Heightened Def Con from 8.98955e-05 to 8.98955e-05
Heightened Def Con from 8.98955e-05 to 8.98955e-05
Heightened Def Con from 9.00202e-05 to 9.00202e-05
Heightened Def Con from 9.00202e-05 to 9.00202e-05
Heightened Def Con from 9.00954e-05 ++++++++to 9.00954e-05
Heightened Def Con from 9.00954e-05 to 9.00954e-05
Heightened Def Con from 9.08083e-05 to 9.08083e-05
Heightened Def Con from 9.08953e-05 ++to 9.08953e-05
Heightened Def Con from 9.08953e-05 to 9.08953e-05
Heightened Def Con from 9.08953e-05 to 9.08953e-05
Heightened Def Con from 9.09398e-05 to 9.09398e-05
Heightened Def Con from 9.161e-05 to 9.161e-05
Heightened Def Con from 9.161e-05 to 9.161e-05
Heightened Def Con from 9.19391e-05 to 9.19391e-05
Heightened Def Con from 9.19391e-05 to 9.19391e-05
Heightened Def Con from 9.19391e-05 to 9.19391e-05
Heightened Def Con from 9.21391e-05 to 9.21391e-05
Heightened Def Con from 9.2221e-05 to 9.2221e-05
Heightened Def Con from 9.23388e-05 to 9.23388e-05
Heightened Def Con from 9.23388e-05 to 9.23388e-05
Heightened Def Con from 9.24208e-05 to 9.24208e-05
Heightened Def Con from 9.32212e-05 to 9.32212e-05
Heightened Def Con from 9.32212e-05 to 9.32212e-05
Heightened Def Con from 9.34076e-05 to 9.34076e-05
Heightened Def Con from 9.37377e-05 to 9.37377e-05
Heightened Def Con from 9.38095e-05 to 9.38095e-05
Heightened Def Con from 9.44061e-05 to 9.44061e-05
Heightened Def Con from 9.46214e-05 to 9.46214e-05
Heightened Def Con from 9.55366e-05 to 9.55366e-05
Heightened Def Con from 9.58034e-05 to 9.58034e-05
Heightened Def Con from 9.60215e-05 +to 9.60215e-05
Heightened Def Con from 9.60215e-05 to 9.60215e-05
Heightened Def Con from 9.60215e-05 to 9.60215e-05
Heightened Def Con from 9.60215e-05 to 9.60215e-05
Heightened Def Con from 9.60215e-05 to 9.60215e-05
Heightened Def Con from 9.62944e-05 to 9.62944e-05
Heightened Def Con from 9.6422e-05 to 9.6422e-05
Heightened Def Con from 9.6422e-05 to 9.6422e-05
Heightened Def Con from 9.6536e-05 to 9.6536e-05
Heightened Def Con from 9.6536e-05 to 9.6536e-05
Heightened Def Con from 9.66213e-05 +to 9.66213e-05
Heightened Def Con from 9.66213e-05 to 9.66213e-05
Heightened Def Con from 9.68007e-05 to 9.68007e-05
Heightened Def Con from 9.69359e-05 to 9.69359e-05
Heightened Def Con from 9.70035e-05 to 9.70035e-05
Heightened Def Con from 9.70035e-05 to 9.70035e-05
Heightened Def Con from 9.74221e-05 to 9.74221e-05
Heightened Def Con from 9.77352e-05 to 9.77352e-05
Heightened Def Con from 9.77995e-05 to 9.77995e-05
Heightened Def Con from 9.79351e-05 to 9.79351e-05
Heightened Def Con from 9.82038e-05 to 9.82038e-05
Heightened Def Con from 9.8222e-05 to 9.8222e-05
Heightened Def Con from 9.89342e-05 to 9.89342e-05
Heightened Def Con from 9.89342e-05 to 9.89342e-05
Heightened Def Con from 9.9134e-05 +++to 9.9134e-05
Heightened Def Con from 9.95339e-05 ++++to 9.95339e-05
Heightened Def Con from 9.98941e-05 +++++++to 9.98941e-05
Heightened Def Con from 9.99335e-05 to 9.99335e-05
Heightened Def Con from 9.99335e-05 to 9.99335e-05
Heightened Def Con from 9.99335e-05 to 9.99335e-05
Heightened Def Con from 9.99335e-05 to 9.99335e-05
Heightened Def Con from 0.000100294 ++to 0.000100294
Heightened Def Con from 0.000100294 to 0.000100294
Heightened Def Con from 0.000100533 +++++to 0.000100533
Heightened Def Con from 0.000100533 to 0.000100533
Heightened Def Con from 0.000100533 to 0.000100533
Heightened Def Con from 0.000100623 to 0.000100623
Heightened Def Con from 0.000100694 to 0.000100694
Heightened Def Con from 0.000100823 to 0.000100823
Heightened Def Con from 0.000101023 to 0.000101023
Heightened Def Con from 0.000101023 to 0.000101023
Heightened Def Con from 0.000101223 +++to 0.000101223
Heightened Def Con from 0.000101823 to 0.000101823
Heightened Def Con from 0.000102223 to 0.000102223
Heightened Def Con from 0.000102223 ++++to 0.000102223
Heightened Def Con from 0.000102532 to 0.000102532
Heightened Def Con from 0.0001026 to 0.0001026
Heightened Def Con from 0.0001026 to 0.0001026
Heightened Def Con from 0.0001026 to 0.0001026
Heightened Def Con from 0.000102694 to 0.000102694
Heightened Def Con from 0.000102999 to 0.000102999
Heightened Def Con from 0.000103023 to 0.000103023
Heightened Def Con from 0.000103131 to 0.000103131
Heightened Def Con from 0.000104131 to 0.000104131
Heightened Def Con from 0.000104131 to 0.000104131
Heightened Def Con from 0.000104131 to 0.000104131
Heightened Def Con from 0.000104131 to 0.000104131
Heightened Def Con from 0.00010433 to 0.00010433
Heightened Def Con from 0.000104494 to 0.000104494
Heightened Def Con from 0.00010453 to 0.00010453
Heightened Def Con from 0.00010453 to 0.00010453
Heightened Def Con from 0.000104802 to 0.000104802
Heightened Def Con from 0.000104894 to 0.000104894
Heightened Def Con from 0.00010493 to 0.00010493
Heightened Def Con from 0.00010493 to 0.00010493
Heightened Def Con from 0.000105094 +++to 0.000105094
Heightened Def Con from 0.000105094 ++++++to 0.000105094
Heightened Def Con from 0.000105094 ++++to 0.000105094
Heightened Def Con from 0.000105094 +to 0.000105094
Heightened Def Con from 0.000105094 +to 0.000105094
Heightened Def Con from 0.000105094 to 0.000105094
Heightened Def Con from 0.000105094 to 0.000105094
Heightened Def Con from 0.000105591 to 0.000105591
Heightened Def Con from 0.000105624 to 0.000105624
Heightened Def Con from 0.000105624 to 0.000105624
Heightened Def Con from 0.000106129 to 0.000106129
Heightened Def Con from 0.000106424 to 0.000106424
Heightened Def Con from 0.000106623 to 0.000106623
Heightened Def Con from 0.000106729 to 0.000106729
Heightened Def Con from 0.000107004 to 0.000107004
Heightened Def Con from 0.000107023 +++to 0.000107023
Heightened Def Con from 0.00010719 to 0.00010719
Heightened Def Con from 0.000107529 to 0.000107529
Heightened Def Con from 0.000107529 to 0.000107529
Heightened Def Con from 0.0001076 to 0.0001076
Heightened Def Con from 0.0001076 to 0.0001076
Heightened Def Con from 0.0001076 +to 0.0001076
Heightened Def Con from 0.0001076 to 0.0001076
Heightened Def Con from 0.000108328 +++++to 0.000108328
Heightened Def Con from 0.000108424 +++++to 0.000108424
Heightened Def Con from 0.000108596 to 0.000108596
Heightened Def Con from 0.000108791 ++to 0.000108791
Heightened Def Con from 0.000109189 to 0.000109189
Heightened Def Con from 0.000109328 +to 0.000109328
Heightened Def Con from 0.000109328 to 0.000109328
Heightened Def Con from 0.000109328 to 0.000109328
Heightened Def Con from 0.000109424 to 0.000109424
Heightened Def Con from 0.000109528 to 0.000109528
Heightened Def Con from 0.000109588 to 0.000109588
Heightened Def Con from 0.000109588 to 0.000109588
Heightened Def Con from 0.000109624 to 0.000109624
Heightened Def Con from 0.000109824 +++to 0.000109824
Heightened Def Con from 0.000109928 to 0.000109928
Heightened Def Con from 0.000109928 +to 0.000109928
Heightened Def Con from 0.000110204 to 0.000110204
Heightened Def Con from 0.000110294 to 0.000110294
Heightened Def Con from 0.000110527 to 0.000110527
Heightened Def Con from 0.000110624 to 0.000110624
Heightened Def Con from 0.000110727 +++to 0.000110727
Heightened Def Con from 0.000110727 to 0.000110727
Heightened Def Con from 0.000111625 to 0.000111625
Heightened Def Con from 0.000111695 ++++++to 0.000111695
Heightened Def Con from 0.000112295 to 0.000112295
Heightened Def Con from 0.000112495 to 0.000112495
Heightened Def Con from 0.000112495 to 0.000112495
Heightened Def Con from 0.000113095 to 0.000113095
Heightened Def Con from 0.000113224 ++++to 0.000113224
Heightened Def Con from 0.000113326 to 0.000113326
Heightened Def Con from 0.000113326 +++to 0.000113326
Heightened Def Con from 0.000113495 to 0.000113495
Heightened Def Con from 0.000113495 +++++++to 0.000113495
Heightened Def Con from 0.000113526 to 0.000113526
Heightened Def Con from 0.000113601 to 0.000113601
Heightened Def Con from 0.000113695 to 0.000113695
Heightened Def Con from 0.000113695 +++++++to 0.000113695
Heightened Def Con from 0.000113895 to 0.000113895
Heightened Def Con from 0.000114225 to 0.000114225
Heightened Def Con from 0.000114225 to 0.000114225
Heightened Def Con from 0.000114495 +++++++to 0.000114495
Heightened Def Con from 0.000114625 to 0.000114625
Heightened Def Con from 0.000114726 to 0.000114726
Heightened Def Con from 0.000114801 to 0.000114801
Heightened Def Con from 0.000114824 to 0.000114824
Heightened Def Con from 0.000114824 to 0.000114824
Heightened Def Con from 0.000114895 to 0.000114895
Heightened Def Con from 0.000114984 to 0.000114984
Heightened Def Con from 0.000115095 +++++to 0.000115095
Heightened Def Con from 0.000115095 +++++++to 0.000115095
Heightened Def Con from 0.000115202 to 0.000115202
Heightened Def Con from 0.000115224 to 0.000115224
Heightened Def Con from 0.000115525 to 0.000115525
Heightened Def Con from 0.000115825 to 0.000115825
Heightened Def Con from 0.000116125 to 0.000116125
Heightened Def Con from 0.000116125 to 0.000116125
Heightened Def Con from 0.000116295 to 0.000116295
Heightened Def Con from 0.000116399 to 0.000116399
Heightened Def Con from 0.000116399 to 0.000116399
Heightened Def Con from 0.000116725 to 0.000116725
Heightened Def Con from 0.000116725 to 0.000116725
Heightened Def Con from 0.000116925 to 0.000116925
Heightened Def Con from 0.000116985 to 0.000116985
Heightened Def Con from 0.000117025 to 0.000117025
Heightened Def Con from 0.000117025 to 0.000117025
Heightened Def Con from 0.000117425 to 0.000117425
Heightened Def Con from 0.000117425 to 0.000117425
Heightened Def Con from 0.000117525 ++++to 0.000117525
Heightened Def Con from 0.000117593 to 0.000117593
Heightened Def Con from 0.000117593 to 0.000117593
Heightened Def Con from 0.000117787 to 0.000117787
Heightened Def Con from 0.000117825 +++++to 0.000117825
Heightened Def Con from 0.000118095 to 0.000118095
Heightened Def Con from 0.000118495 ++++to 0.000118495
Heightened Def Con from 0.000118524 to 0.000118524
Heightened Def Con from 0.000118724 to 0.000118724
Heightened Def Con from 0.000118793 to 0.000118793
Heightened Def Con from 0.000118793 to 0.000118793
Heightened Def Con from 0.000118825 to 0.000118825
Heightened Def Con from 0.000118825 to 0.000118825
Heightened Def Con from 0.000119325 to 0.000119325
Heightened Def Con from 0.000119524 to 0.000119524
Heightened Def Con from 0.000119695 to 0.000119695
Heightened Def Con from 0.000119825 ++to 0.000119825
Heightened Def Con from 0.000119924 to 0.000119924
Heightened Def Con from 0.000120184 to 0.000120184
Heightened Def Con from 0.000120184 to 0.000120184
Heightened Def Con from 0.000120225 to 0.000120225
Heightened Def Con from 0.000120395 to 0.000120395
Heightened Def Con from 0.000120625 to 0.000120625
Heightened Def Con from 0.000120625 to 0.000120625
Heightened Def Con from 0.000120924 to 0.000120924
Heightened Def Con from 0.000121026 to 0.000121026
Heightened Def Con from 0.000121225 +++to 0.000121225
Heightened Def Con from 0.000121625 to 0.000121625
Heightened Def Con from 0.000121625 ++++to 0.000121625
Heightened Def Con from 0.000121625 ++++to 0.000121625
Heightened Def Con from 0.000122095 ++++to 0.000122095
Heightened Def Con from 0.000122095 to 0.000122095
Heightened Def Con from 0.000122124 +++to 0.000122124
Heightened Def Con from 0.000122124 ++++to 0.000122124
Heightened Def Con from 0.000122124 to 0.000122124
Heightened Def Con from 0.000122182 to 0.000122182
Heightened Def Con from 0.000122295 +++++to 0.000122295
Heightened Def Con from 0.000122324 to 0.000122324
Heightened Def Con from 0.000122425 to 0.000122425
Heightened Def Con from 0.000122425 to 0.000122425
Heightened Def Con from 0.000122495 to 0.000122495
Heightened Def Con from 0.000122583 to 0.000122583
Heightened Def Con from 0.000123124 ++++to 0.000123124
Heightened Def Con from 0.000123295 ++++++to 0.000123295
Heightened Def Con from 0.000123386 to 0.000123386
Heightened Def Con from 0.000123895 to 0.000123895
Heightened Def Con from 0.000124187 to 0.000124187
Heightened Def Con from 0.00012439 to 0.00012439
Heightened Def Con from 0.000124625 +++++to 0.000124625
Heightened Def Con from 0.000124695 to 0.000124695
Heightened Def Con from 0.000124825 +++to 0.000124825
Heightened Def Con from 0.000124825 to 0.000124825
Heightened Def Con from 0.000125225 to 0.000125225
Heightened Def Con from 0.000125225 to 0.000125225
Heightened Def Con from 0.000125324 ++to 0.000125324
Heightened Def Con from 0.000125594 to 0.000125594
Heightened Def Con from 0.000125625 ++to 0.000125625
Heightened Def Con from 0.000125625 +to 0.000125625
Heightened Def Con from 0.000125625 to 0.000125625
Heightened Def Con from 0.000125625 +to 0.000125625
Heightened Def Con from 0.000125625 to 0.000125625
Heightened Def Con from 0.000125724 ++to 0.000125724
Heightened Def Con from 0.000125724 to 0.000125724
Heightened Def Con from 0.000126124 to 0.000126124
Heightened Def Con from 0.000126626 to 0.000126626
Heightened Def Con from 0.000126924 to 0.000126924
Heightened Def Con from 0.000126924 to 0.000126924
Heightened Def Con from 0.000126983 to 0.000126983
Heightened Def Con from 0.000127026 to 0.000127026
Heightened Def Con from 0.000127026 to 0.000127026
Heightened Def Con from 0.000127095 +to 0.000127095
Heightened Def Con from 0.000127095 to 0.000127095
Heightened Def Con from 0.000127225 to 0.000127225
Heightened Def Con from 0.000127386 to 0.000127386
Heightened Def Con from 0.000127386 to 0.000127386
Heightened Def Con from 0.000127386 to 0.000127386
Heightened Def Con from 0.000127625 +to 0.000127625
Heightened Def Con from 0.000127625 to 0.000127625
Heightened Def Con from 0.000127625 +++++to 0.000127625
Heightened Def Con from 0.000128196 to 0.000128196
Heightened Def Con from 0.000128196 to 0.000128196
Heightened Def Con from 0.000128196 to 0.000128196
Heightened Def Con from 0.000128196 to 0.000128196
Heightened Def Con from 0.000128196 to 0.000128196
Heightened Def Con from 0.000128295 to 0.000128295
Heightened Def Con from 0.000128295 to 0.000128295
Heightened Def Con from 0.000128384 to 0.000128384
Heightened Def Con from 0.000128384 to 0.000128384
Heightened Def Con from 0.000128426 to 0.000128426
Heightened Def Con from 0.000128826 +++++to 0.000128826
Heightened Def Con from 0.000128924 to 0.000128924
Heightened Def Con from 0.000129095 to 0.000129095
Heightened Def Con from 0.000129183 to 0.000129183
Heightened Def Con from 0.000129183 to 0.000129183
Heightened Def Con from 0.000129183 to 0.000129183
Heightened Def Con from 0.000129324 to 0.000129324
Heightened Def Con from 0.000129324 to 0.000129324
Heightened Def Con from 0.000129324 +++to 0.000129324
Heightened Def Con from 0.000129324 to 0.000129324
Heightened Def Con from 0.000129402 to 0.000129402
Heightened Def Con from 0.000129582 +++to 0.000129582
Heightened Def Con from 0.000129582 to 0.000129582
Heightened Def Con from 0.000130026 to 0.000130026
Heightened Def Con from 0.000130324 to 0.000130324
Heightened Def Con from 0.000130426 to 0.000130426
Heightened Def Con from 0.000130894 to 0.000130894
Heightened Def Con from 0.000131185 +to 0.000131185
Heightened Def Con from 0.000131185 to 0.000131185
Heightened Def Con from 0.000131894 to 0.000131894
Heightened Def Con from 0.000132124 to 0.000132124
Heightened Def Con from 0.000132124 to 0.000132124
Heightened Def Con from 0.000132224 +++to 0.000132224
Heightened Def Con from 0.000132524 +++to 0.000132524
Heightened Def Con from 0.000133185 to 0.000133185
Heightened Def Con from 0.000133226 to 0.000133226
Heightened Def Con from 0.000133294 ++++++to 0.000133294
Heightened Def Con from 0.000133324 +to 0.000133324
Heightened Def Con from 0.000133324 to 0.000133324
Heightened Def Con from 0.000133694 to 0.000133694
Heightened Def Con from 0.000133805 to 0.000133805
Heightened Def Con from 0.000133825 to 0.000133825
Heightened Def Con from 0.000133924 to 0.000133924
Heightened Def Con from 0.000134426 to 0.000134426
Heightened Def Con from 0.000134426 to 0.000134426
Heightened Def Con from 0.000134426 ++to 0.000134426
Heightened Def Con from 0.000134426 to 0.000134426
Heightened Def Con from 0.000134624 ++to 0.000134624
Heightened Def Con from 0.000134624 ++++++to 0.000134624
Heightened Def Con from 0.000134785 to 0.000134785
Heightened Def Con from 0.000134826 to 0.000134826
Heightened Def Con from 0.000134826 to 0.000134826
Heightened Def Con from 0.000135024 to 0.000135024
Heightened Def Con from 0.000135024 to 0.000135024
Heightened Def Con from 0.000135585 to 0.000135585
Heightened Def Con from 0.000135585 to 0.000135585
Heightened Def Con from 0.000135985 to 0.000135985
Heightened Def Con from 0.000136224 to 0.000136224
Heightened Def Con from 0.000136325 to 0.000136325
Heightened Def Con from 0.000136325 to 0.000136325
Heightened Def Con from 0.000136325 to 0.000136325
Heightened Def Con from 0.000136426 to 0.000136426
Heightened Def Con from 0.000136426 to 0.000136426
Heightened Def Con from 0.000136525 to 0.000136525
Heightened Def Con from 0.000136525 to 0.000136525
Heightened Def Con from 0.000136624 to 0.000136624
Heightened Def Con from 0.000136893 +++++to 0.000136893
Heightened Def Con from 0.000137003 to 0.000137003
Heightened Def Con from 0.000137025 to 0.000137025
Heightened Def Con from 0.000137093 +++to 0.000137093
Heightened Def Con from 0.000137093 to 0.000137093
Heightened Def Con from 0.000137493 to 0.000137493
Heightened Def Con from 0.000137824 to 0.000137824
Heightened Def Con from 0.000137925 to 0.000137925
Heightened Def Con from 0.000138293 to 0.000138293
Heightened Def Con from 0.000138293 to 0.000138293
Heightened Def Con from 0.000138325 to 0.000138325
Heightened Def Con from 0.000138325 to 0.000138325
Heightened Def Con from 0.000138426 to 0.000138426
Heightened Def Con from 0.000138426 to 0.000138426
Heightened Def Con from 0.000138426 to 0.000138426
Heightened Def Con from 0.000138525 to 0.000138525
Heightened Def Con from 0.000138893 ++++to 0.000138893
Heightened Def Con from 0.000138893 to 0.000138893
Heightened Def Con from 0.000139025 to 0.000139025
Heightened Def Con from 0.000139025 to 0.000139025
Heightened Def Con from 0.000139424 to 0.000139424
Heightened Def Con from 0.000139525 to 0.000139525
Heightened Def Con from 0.000139525 to 0.000139525
Heightened Def Con from 0.000139525 to 0.000139525
Heightened Def Con from 0.000140093 to 0.000140093
Heightened Def Con from 0.000140093 to 0.000140093
Heightened Def Con from 0.000140218 to 0.000140218
Heightened Def Con from 0.000140218 to 0.000140218
Heightened Def Con from 0.000140218 to 0.000140218
Heightened Def Con from 0.000140223 to 0.000140223
Heightened Def Con from 0.000140223 to 0.000140223
Heightened Def Con from 0.000140425 +to 0.000140425
Heightened Def Con from 0.000140425 to 0.000140425
Heightened Def Con from 0.000140825 +to 0.000140825
Heightened Def Con from 0.000141126 to 0.000141126
Heightened Def Con from 0.000141292 to 0.000141292
Heightened Def Con from 0.000141292 ++++++to 0.000141292
Heightened Def Con from 0.000141692 to 0.000141692
Heightened Def Con from 0.000141823 +to 0.000141823
Heightened Def Con from 0.000141823 to 0.000141823
Heightened Def Con from 0.000141892 ++++++to 0.000141892
Heightened Def Con from 0.000141892 to 0.000141892
Heightened Def Con from 0.000142326 to 0.000142326
Heightened Def Con from 0.000142326 to 0.000142326
Heightened Def Con from 0.000142425 to 0.000142425
Heightened Def Con from 0.000143127 to 0.000143127
Heightened Def Con from 0.000143206 to 0.000143207
Heightened Def Con from 0.000143327 to 0.000143327
Heightened Def Con from 0.000143327 to 0.000143327
Heightened Def Con from 0.000143327 to 0.000143327
Heightened Def Con from 0.000143492 +++++to 0.000143492
Heightened Def Con from 0.000143492 to 0.000143492
Heightened Def Con from 0.000143492 to 0.000143492
Heightened Def Con from 0.000143927 to 0.000143927
Heightened Def Con from 0.000144492 +++++to 0.000144492
Heightened Def Con from 0.000144492 to 0.000144492
Heightened Def Con from 0.000144527 to 0.000144527
Heightened Def Con from 0.000144727 to 0.000144727
Heightened Def Con from 0.000144727 to 0.000144727
Heightened Def Con from 0.000145001 to 0.000145001
Heightened Def Con from 0.000145224 to 0.000145224
Heightened Def Con from 0.000145328 ++to 0.000145328
Heightened Def Con from 0.000145691 +++++to 0.000145691
Heightened Def Con from 0.000145691 ++++to 0.000145691
Heightened Def Con from 0.000145691 to 0.000145691
Heightened Def Con from 0.000145824 to 0.000145824
Heightened Def Con from 0.000145928 +++to 0.000145928
Heightened Def Con from 0.000146291 +++++++to 0.000146291
Heightened Def Con from 0.000146624 to 0.000146624
Heightened Def Con from 0.000146624 to 0.000146624
Heightened Def Con from 0.000146691 to 0.000146691
Heightened Def Con from 0.000146691 to 0.000146691
Heightened Def Con from 0.000147003 to 0.000147003
Heightened Def Con from 0.000147024 ++++to 0.000147024
Heightened Def Con from 0.000147091 to 0.000147091
Heightened Def Con from 0.000147091 ++++++++to 0.000147091
Heightened Def Con from 0.000147129 to 0.000147129
Heightened Def Con from 0.000147129 to 0.000147129
Heightened Def Con from 0.000147129 to 0.000147129
Heightened Def Con from 0.000147329 to 0.000147329
Heightened Def Con from 0.000147529 to 0.000147529
Heightened Def Con from 0.000147529 to 0.000147529
Heightened Def Con from 0.000147601 to 0.000147601
Heightened Def Con from 0.000147822 to 0.000147822
Heightened Def Con from 0.000147929 to 0.000147929
Heightened Def Con from 0.000148223 to 0.000148223
Heightened Def Con from 0.000148405 to 0.000148405
Heightened Def Con from 0.000148424 to 0.000148424
Heightened Def Con from 0.000148823 to 0.000148823
Heightened Def Con from 0.000148823 to 0.000148823
Heightened Def Con from 0.000149091 ++++++to 0.000149091
Heightened Def Con from 0.00014913 to 0.00014913
Heightened Def Con from 0.000150015 to 0.000150015
Heightened Def Con from 0.00015033 ++to 0.00015033
Heightened Def Con from 0.00015033 to 0.00015033
Heightened Def Con from 0.000150531 to 0.000150531
Heightened Def Con from 0.000150531 +++++to 0.000150531
Heightened Def Con from 0.000150731 to 0.000150731
Heightened Def Con from 0.000150931 to 0.000150931
Heightened Def Con from 0.000151622 to 0.000151622
Heightened Def Con from 0.000151622 to 0.000151622
Heightened Def Con from 0.000152132 to 0.000152132
Heightened Def Con from 0.000152132 +++++to 0.000152132
Heightened Def Con from 0.000152422 to 0.000152422
Heightened Def Con from 0.000152732 to 0.000152732
Heightened Def Con from 0.000152732 to 0.000152732
Heightened Def Con from 0.000153132 to 0.000153132
Heightened Def Con from 0.000154333 to 0.000154333
Heightened Def Con from 0.000154533 +to 0.000154533
Heightened Def Con from 0.000154933 +++++to 0.000154933
Heightened Def Con from 0.000155134 to 0.000155134
Heightened Def Con from 0.000155134 to 0.000155134
Heightened Def Con from 0.000155334 to 0.000155334
Heightened Def Con from 0.000155734 to 0.000155734
Heightened Def Con from 0.000156334 to 0.000156334
Heightened Def Con from 0.000156334 to 0.000156334
Heightened Def Con from 0.000157892 +++++++to 0.000157892
Heightened Def Con from 0.000157892 to 0.000157892
Heightened Def Con from 0.000158135 +++to 0.000158135
Heightened Def Con from 0.000158135 to 0.000158135
Heightened Def Con from 0.000158135 to 0.000158135
Heightened Def Con from 0.000158135 to 0.000158135
Heightened Def Con from 0.000158736 ++++to 0.000158736
Heightened Def Con from 0.000158736 to 0.000158736
Heightened Def Con from 0.000159893 to 0.000159893
Heightened Def Con from 0.000160137 to 0.000160137
Heightened Def Con from 0.000160137 to 0.000160137
Heightened Def Con from 0.000160137 to 0.000160137
Heightened Def Con from 0.000160137 ++to 0.000160137
Heightened Def Con from 0.000160137 to 0.000160137
Heightened Def Con from 0.000160938 to 0.000160938
Heightened Def Con from 0.000162139 to 0.000162139
Heightened Def Con from 0.000162139 to 0.000162139
Heightened Def Con from 0.000162339 to 0.000162339
Heightened Def Con from 0.00016394 to 0.00016394
Heightened Def Con from 0.00016394 ++to 0.00016394
Heightened Def Con from 0.00016394 to 0.00016394
Heightened Def Con from 0.000164541 +to 0.000164541
Heightened Def Con from 0.000165494 ++++++++to 0.000165494
Heightened Def Con from 0.000165494 to 0.000165494
Heightened Def Con from 0.000166695 ++to 0.000166695
Heightened Def Con from 0.000166695 to 0.000166695
Heightened Def Con from 0.000166942 to 0.000166942
Heightened Def Con from 0.000166942 to 0.000166942
Heightened Def Con from 0.000167743 to 0.000167743
Heightened Def Con from 0.000168143 to 0.000168143
Heightened Def Con from 0.000168343 +to 0.000168343
Heightened Def Con from 0.000168343 to 0.000168343
Heightened Def Con from 0.000169144 ++to 0.000169144
Heightened Def Con from 0.000169144 ++++to 0.000169144
Heightened Def Con from 0.000169544 to 0.000169544
Heightened Def Con from 0.000170946 to 0.000170946
Heightened Def Con from 0.000170946 to 0.000170946
Heightened Def Con from 0.000172546 to 0.000172546
Heightened Def Con from 0.000174748 to 0.000174748
Heightened Def Con from 0.000176298 to 0.000176298
Heightened Def Con from 0.000176298 to 0.000176298
Heightened Def Con from 0.000176298 to 0.000176298
Heightened Def Con from 0.00017755 to 0.00017755
Heightened Def Con from 0.00017815 to 0.00017815
Heightened Def Con from 0.00017895 ++++to 0.00017895
Heightened Def Con from 0.00017895 to 0.00017895
Heightened Def Con from 0.0001807 to 0.0001807
Heightened Def Con from 0.0001821 to 0.0001821
Heightened Def Con from 0.0001821 to 0.0001821
Heightened Def Con from 0.0001821 +to 0.0001821
Heightened Def Con from 0.0001821 ++++++++to 0.0001821
Heightened Def Con from 0.0001821 to 0.0001821
Heightened Def Con from 0.0001845 to 0.0001845
Heightened Def Con from 0.0001845 ++++to 0.0001845
Heightened Def Con from 0.0001845 to 0.0001845
Heightened Def Con from 0.0001845 to 0.0001845
Heightened Def Con from 0.000185152 ++++++to 0.000185152
Heightened Def Con from 0.000185753 ++++++to 0.000185753
Heightened Def Con from 0.000186953 +++++to 0.000186953
Heightened Def Con from 0.000186953 to 0.000186953
Heightened Def Con from 0.000188101 to 0.000188101
Heightened Def Con from 0.000190754 ++++++to 0.000190754
Heightened Def Con from 0.000190754 to 0.000190754
Heightened Def Con from 0.000192702 to 0.000192702
Heightened Def Con from 0.000195303 +++++++++to 0.000195303
Heightened Def Con from 0.000195503 to 0.000195503
Heightened Def Con from 0.000195555 to 0.000195555
Heightened Def Con from 0.000196503 ++to 0.000196503
Heightened Def Con from 0.000196503 +to 0.000196503
Heightened Def Con from 0.000196503 ++++++++++to 0.000196503
Heightened Def Con from 0.000196503 ++++++++to 0.000196503
Heightened Def Con from 0.000196503 +++++++to 0.000196503
Heightened Def Con from 0.000196503 ++++++++to 0.000196503
Heightened Def Con from 0.000197303 ++++++to 0.000197303
Heightened Def Con from 0.000197303 to 0.000197303
Heightened Def Con from 0.000197703 to 0.000197703
Heightened Def Con from 0.000198356 +++++to 0.000198356
Heightened Def Con from 0.000198556 to 0.000198556
Heightened Def Con from 0.000198903 +to 0.000198903
Heightened Def Con from 0.000199756 to 0.000199756
Heightened Def Con from 0.000201703 to 0.000201703
Heightened Def Con from 0.000201703 to 0.000201703
Heightened Def Con from 0.000203104 to 0.000203104
Heightened Def Con from 0.000203104 +++to 0.000203104
Heightened Def Con from 0.000203104 +++to 0.000203104
Heightened Def Con from 0.000203104 +to 0.000203104
Heightened Def Con from 0.000203104 ++to 0.000203104
Heightened Def Con from 0.000203104 ++++++to 0.000203104
Heightened Def Con from 0.000203104 +++++to 0.000203104
Heightened Def Con from 0.000203104 +to 0.000203104
Heightened Def Con from 0.000204557 +++++to 0.000204557
Heightened Def Con from 0.000204557 to 0.000204557
Heightened Def Con from 0.000206704 to 0.000206704
Heightened Def Con from 0.000206704 to 0.000206704
Heightened Def Con from 0.000206704 to 0.000206704
Heightened Def Con from 0.000206704 ++++++to 0.000206704
Heightened Def Con from 0.000206704 to 0.000206704
Heightened Def Con from 0.000215904 +++++++to 0.000215904
Heightened Def Con from 0.000215904 +to 0.000215904
Heightened Def Con from 0.000215904 to 0.000215904
Heightened Def Con from 0.000215904 to 0.000215904
Heightened Def Con from 0.000217303 to 0.000217303
Heightened Def Con from 0.000217504 to 0.000217504
Heightened Def Con from 0.000217504 to 0.000217504
Heightened Def Con from 0.000219356 to 0.000219356
Heightened Def Con from 0.000220303 to 0.000220303
Heightened Def Con from 0.000220303 +to 0.000220303
Heightened Def Con from 0.000220303 +++++++++to 0.000220303
Heightened Def Con from 0.000220303 +to 0.000220303
Heightened Def Con from 0.000221703 ++++++++to 0.000221703
Heightened Def Con from 0.000221703 to 0.000221703
Heightened Def Con from 0.000221756 to 0.000221756
Heightened Def Con from 0.000221903 to 0.000221903
Heightened Def Con from 0.000223303 to 0.000223303
Heightened Def Con from 0.000226555 to 0.000226555
Heightened Def Con from 0.000226703 to 0.000226703
Heightened Def Con from 0.000226703 ++to 0.000226703
Heightened Def Con from 0.000226703 +++++++++to 0.000226703
Heightened Def Con from 0.000226703 ++++++++++to 0.000226703
Heightened Def Con from 0.000228702 +++++++++to 0.000228702
Heightened Def Con from 0.000230554 to 0.000230554
Heightened Def Con from 0.000230554 ++++to 0.000230554
Heightened Def Con from 0.000230554 to 0.000230554
Heightened Def Con from 0.000231154 +to 0.000231154
Heightened Def Con from 0.000231154 to 0.000231154
Heightened Def Con from 0.000231502 ++to 0.000231502
Heightened Def Con from 0.000231502 +++++++++to 0.000231502
Heightened Def Con from 0.000232554 to 0.000232554
Heightened Def Con from 0.000233354 to 0.000233354
Heightened Def Con from 0.000233354 to 0.000233354
Heightened Def Con from 0.000235753 to 0.000235753
Heightened Def Con from 0.000238501 to 0.000238501
Heightened Def Con from 0.000238501 to 0.000238501
Heightened Def Con from 0.000241552 to 0.000241552
Heightened Def Con from 0.000241752 to 0.000241752
Heightened Def Con from 0.000241951 +++++to 0.000241951
Heightened Def Con from 0.000241951 to 0.000241951
Heightened Def Con from 0.00024375 ++++to 0.00024375
Heightened Def Con from 0.00024375 to 0.00024375
Heightened Def Con from 0.000245699 to 0.000245699
Heightened Def Con from 0.000245699 ++to 0.000245699
Heightened Def Con from 0.000245699 to 0.000245699
Heightened Def Con from 0.000245699 to 0.000245699
Heightened Def Con from 0.000245748 to 0.000245748
Heightened Def Con from 0.000245948 to 0.000245948
Heightened Def Con from 0.000246548 to 0.000246548
Heightened Def Con from 0.000246548 to 0.000246548
Heightened Def Con from 0.000246548 to 0.000246548
Heightened Def Con from 0.000247947 to 0.000247947
Heightened Def Con from 0.000250345 +++to 0.000250345
Heightened Def Con from 0.000250945 to 0.000250945
Heightened Def Con from 0.000251944 to 0.000251944
Heightened Def Con from 0.000251944 ++to 0.000251944
Heightened Def Con from 0.000251944 to 0.000251944
Heightened Def Con from 0.000253819 to 0.000253819
Heightened Def Con from 0.000253819 to 0.000253819
Heightened Def Con from 0.000253942 to 0.000253942
Heightened Def Con from 0.000253942 to 0.000253942
Heightened Def Con from 0.000253942 ++to 0.000253942
Heightened Def Con from 0.000254012 to 0.000254012
Heightened Def Con from 0.000254012 to 0.000254012
Heightened Def Con from 0.000254742 to 0.000254742
Heightened Def Con from 0.000254742 +to 0.000254742
Heightened Def Con from 0.000254742 to 0.000254742
Heightened Def Con from 0.000255142 ++++to 0.000255142
Heightened Def Con from 0.000255142 to 0.000255142
Heightened Def Con from 0.00025542 to 0.00025542
Heightened Def Con from 0.000255541 to 0.000255541
Heightened Def Con from 0.000255541 to 0.000255541
Heightened Def Con from 0.000255541 to 0.000255541
Heightened Def Con from 0.000255541 to 0.000255541
Heightened Def Con from 0.000255612 to 0.000255612
Heightened Def Con from 0.000255612 to 0.000255612
Heightened Def Con from 0.00025582 to 0.00025582
Heightened Def Con from 0.00025602 to 0.00025602
Heightened Def Con from 0.000256412 to 0.000256412
Heightened Def Con from 0.00025642 to 0.00025642
Heightened Def Con from 0.00025722 to 0.00025722
Heightened Def Con from 0.000257409 to 0.000257409
Heightened Def Con from 0.000257421 to 0.000257421
Heightened Def Con from 0.00025754 to 0.00025754
Heightened Def Con from 0.000257621 to 0.000257621
Heightened Def Con from 0.000257621 ++++to 0.000257621
Heightened Def Con from 0.000257621 to 0.000257621
Heightened Def Con from 0.00025794 to 0.00025794
Heightened Def Con from 0.00025822 +++to 0.00025822
Heightened Def Con from 0.00025822 ++++to 0.00025822
Heightened Def Con from 0.000258421 +to 0.000258421
Heightened Def Con from 0.000258421 to 0.000258421
Heightened Def Con from 0.000258421 to 0.000258421
Heightened Def Con from 0.000259221 +to 0.000259221
Heightened Def Con from 0.000259221 +++to 0.000259221
Heightened Def Con from 0.000259221 to 0.000259221
Heightened Def Con from 0.000259339 to 0.000259339
Heightened Def Con from 0.000259409 to 0.000259409
Heightened Def Con from 0.000259421 to 0.000259421
Heightened Def Con from 0.000259421 to 0.000259421
Heightened Def Con from 0.000259805 +++to 0.000259805
Heightened Def Con from 0.000259821 +to 0.000259821
Heightened Def Con from 0.000259821 ++to 0.000259821
Heightened Def Con from 0.000259821 to 0.000259821
Heightened Def Con from 0.000259821 to 0.000259821
Heightened Def Con from 0.000260206 to 0.000260206
Heightened Def Con from 0.000260221 +++to 0.000260221
Heightened Def Con from 0.000260221 to 0.000260221
Heightened Def Con from 0.000260338 to 0.000260338
Heightened Def Con from 0.000260338 +++++to 0.000260338
Heightened Def Con from 0.000260495 ++to 0.000260495
Heightened Def Con from 0.000260495 to 0.000260495
Heightened Def Con from 0.000260495 to 0.000260495
Heightened Def Con from 0.000261021 to 0.000261021
Heightened Def Con from 0.000261021 to 0.000261021
Heightened Def Con from 0.000261095 to 0.000261095
Heightened Def Con from 0.000261095 to 0.000261095
Heightened Def Con from 0.000261095 to 0.000261095
Heightened Def Con from 0.000261137 to 0.000261137
Heightened Def Con from 0.000261137 +++to 0.000261137
Heightened Def Con from 0.000261137 to 0.000261137
Heightened Def Con from 0.000261495 to 0.000261495
Heightened Def Con from 0.000261495 to 0.000261495
Heightened Def Con from 0.000261605 to 0.000261605
Heightened Def Con from 0.000261605 to 0.000261605
Heightened Def Con from 0.000261937 to 0.000261937
Heightened Def Con from 0.000262137 to 0.000262137
Heightened Def Con from 0.000262494 to 0.000262494
Heightened Def Con from 0.000262494 +++++++to 0.000262494
Heightened Def Con from 0.000262622 to 0.000262622
Heightened Def Con from 0.000262694 ++++++to 0.000262694
Heightened Def Con from 0.000262694 ++++++to 0.000262694
Heightened Def Con from 0.000262736 to 0.000262736
Heightened Def Con from 0.000262736 to 0.000262736
Heightened Def Con from 0.000262736 to 0.000262736
Heightened Def Con from 0.000262822 to 0.000262822
Heightened Def Con from 0.000263536 to 0.000263536
Heightened Def Con from 0.000263536 to 0.000263536
Heightened Def Con from 0.000263736 to 0.000263736
Heightened Def Con from 0.000263802 to 0.000263802
Heightened Def Con from 0.000263802 to 0.000263802
Heightened Def Con from 0.000263802 to 0.000263802
Heightened Def Con from 0.000263894 to 0.000263894
Heightened Def Con from 0.000263894 +++++++to 0.000263894
Heightened Def Con from 0.000263894 ++++++to 0.000263894
Heightened Def Con from 0.000263894 to 0.000263894
Heightened Def Con from 0.000263936 to 0.000263936
Heightened Def Con from 0.000264135 +++++to 0.000264135
Heightened Def Con from 0.000264535 to 0.000264535
Heightened Def Con from 0.000264622 to 0.000264622
Heightened Def Con from 0.000264622 to 0.000264622
Heightened Def Con from 0.000264822 to 0.000264822
Heightened Def Con from 0.000265401 to 0.000265401
Heightened Def Con from 0.000265601 to 0.000265601
Heightened Def Con from 0.000265601 to 0.000265601
Heightened Def Con from 0.000265822 to 0.000265822
Heightened Def Con from 0.000265934 to 0.000265934
Heightened Def Con from 0.000265934 ++++to 0.000265934
Heightened Def Con from 0.000265934 to 0.000265934
Heightened Def Con from 0.000265934 ++++to 0.000265934
Heightened Def Con from 0.000266334 to 0.000266334
Heightened Def Con from 0.000266933 to 0.000266933
Heightened Def Con from 0.000267 to 0.000267
Heightened Def Con from 0.000267 to 0.000267
Heightened Def Con from 0.000267223 to 0.000267223
Heightened Def Con from 0.000267223 +++to 0.000267223
Heightened Def Con from 0.000267223 to 0.000267223
Heightened Def Con from 0.000267294 ++++++++to 0.000267294
Heightened Def Con from 0.000267294 to 0.000267294
Heightened Def Con from 0.000267494 to 0.000267494
Heightened Def Con from 0.000267601 to 0.000267601
Heightened Def Con from 0.000267694 to 0.000267694
Heightened Def Con from 0.000268294 to 0.000268294
Heightened Def Con from 0.000268401 to 0.000268401
Heightened Def Con from 0.000268423 to 0.000268423
Heightened Def Con from 0.000268423 to 0.000268423
Heightened Def Con from 0.000268623 +++to 0.000268623
Heightened Def Con from 0.000269023 to 0.000269023
Heightened Def Con from 0.000269023 to 0.000269023
Heightened Def Con from 0.000269196 to 0.000269196
Heightened Def Con from 0.000269196 to 0.000269196
Heightened Def Con from 0.000269401 to 0.000269401
Heightened Def Con from 0.000269791 ++to 0.000269791
Heightened Def Con from 0.000269931 to 0.000269931
Heightened Def Con from 0.000270094 ++++++to 0.000270094
Heightened Def Con from 0.000270796 to 0.000270796
Heightened Def Con from 0.000270796 to 0.000270796
Heightened Def Con from 0.000270796 to 0.000270796
Heightened Def Con from 0.000270931 to 0.000270931
Heightened Def Con from 0.000271003 to 0.000271003
Heightened Def Con from 0.000271003 to 0.000271003
Heightened Def Con from 0.000271003 to 0.000271003
Heightened Def Con from 0.000271023 +++to 0.000271023
Heightened Def Con from 0.000271423 to 0.000271423
Heightened Def Con from 0.00027173 to 0.00027173
Heightened Def Con from 0.000271992 to 0.000271992
Heightened Def Con from 0.000272223 to 0.000272223
Heightened Def Con from 0.000273008 to 0.000273008
Heightened Def Con from 0.000273294 to 0.000273294
Heightened Def Con from 0.000273329 to 0.000273329
Heightened Def Con from 0.000273529 to 0.000273529
Heightened Def Con from 0.000273529 to 0.000273529
Heightened Def Con from 0.000273624 to 0.000273624
Heightened Def Con from 0.000273624 to 0.000273624
Heightened Def Con from 0.000273824 to 0.000273824
Heightened Def Con from 0.000273894 to 0.000273894
Heightened Def Con from 0.000273894 to 0.000273894
Heightened Def Con from 0.000274024 to 0.000274024
Heightened Def Con from 0.000274129 to 0.000274129
Heightened Def Con from 0.000274129 to 0.000274129
Heightened Def Con from 0.000274224 to 0.000274224
Heightened Def Con from 0.000274224 to 0.000274224
Heightened Def Con from 0.000274424 to 0.000274424
Heightened Def Con from 0.000274424 to 0.000274424
Heightened Def Con from 0.000274424 to 0.000274424
Heightened Def Con from 0.000274424 to 0.000274424
Heightened Def Con from 0.000274694 to 0.000274694
Heightened Def Con from 0.000274694 to 0.000274694
Heightened Def Con from 0.000275294 ++++++to 0.000275294
Heightened Def Con from 0.000275391 +to 0.000275391
Heightened Def Con from 0.000275391 to 0.000275391
Heightened Def Con from 0.000275528 to 0.000275528
Heightened Def Con from 0.000275824 to 0.000275824
Heightened Def Con from 0.000275928 to 0.000275928
Heightened Def Con from 0.000276128 +++to 0.000276128
Heightened Def Con from 0.000276694 to 0.000276694
Heightened Def Con from 0.000276927 to 0.000276927
Heightened Def Con from 0.000277225 to 0.000277225
Heightened Def Con from 0.000277225 ++++to 0.000277225
Heightened Def Con from 0.000277327 to 0.000277327
Heightened Def Con from 0.000277399 to 0.000277399
Heightened Def Con from 0.000277527 to 0.000277527
Heightened Def Con from 0.000277588 to 0.000277588
Heightened Def Con from 0.000277695 to 0.000277695
Heightened Def Con from 0.000277727 to 0.000277727
Heightened Def Con from 0.000277824 to 0.000277824
Heightened Def Con from 0.000278095 +++++to 0.000278095
Heightened Def Con from 0.000278425 to 0.000278425
Heightened Def Con from 0.000278605 to 0.000278605
Heightened Def Con from 0.000278624 to 0.000278624
Heightened Def Con from 0.000278726 to 0.000278726
Heightened Def Con from 0.000278825 to 0.000278825
Heightened Def Con from 0.000278825 to 0.000278825
Heightened Def Con from 0.000279625 ++++to 0.000279625
Heightened Def Con from 0.000279802 to 0.000279802
Heightened Def Con from 0.000279824 to 0.000279824
Heightened Def Con from 0.000280126 to 0.000280126
Heightened Def Con from 0.000280425 to 0.000280425
Heightened Def Con from 0.000280425 to 0.000280425
Heightened Def Con from 0.000280425 +++++to 0.000280425
Heightened Def Con from 0.000280425 to 0.000280425
Heightened Def Con from 0.0002806 to 0.0002806
Heightened Def Con from 0.000280726 to 0.000280726
Heightened Def Con from 0.000280825 to 0.000280825
Heightened Def Con from 0.000280895 +++++to 0.000280895
Heightened Def Con from 0.000280895 to 0.000280895
Heightened Def Con from 0.000281024 to 0.000281024
Heightened Def Con from 0.000281295 to 0.000281295
Heightened Def Con from 0.000281526 to 0.000281526
Heightened Def Con from 0.000281526 to 0.000281526
Heightened Def Con from 0.000281824 to 0.000281824
Heightened Def Con from 0.000282095 +++++++to 0.000282095
Heightened Def Con from 0.000282325 +++to 0.000282325
Heightened Def Con from 0.000282325 to 0.000282325
Heightened Def Con from 0.000282385 to 0.000282385
Heightened Def Con from 0.000282385 to 0.000282385
Heightened Def Con from 0.000282385 to 0.000282385
Heightened Def Con from 0.000282385 to 0.000282385
Heightened Def Con from 0.000282625 +++++to 0.000282625
Heightened Def Con from 0.000282997 to 0.000282997
Heightened Def Con from 0.000283295 to 0.000283295
Heightened Def Con from 0.000283325 +to 0.000283325
Heightened Def Con from 0.000283325 to 0.000283325
Heightened Def Con from 0.000283425 to 0.000283425
Heightened Def Con from 0.000283525 +++to 0.000283525
Heightened Def Con from 0.000283525 to 0.000283525
Heightened Def Con from 0.000283625 to 0.000283625
Heightened Def Con from 0.000283695 to 0.000283695
Heightened Def Con from 0.000283695 to 0.000283695
Heightened Def Con from 0.000283695 to 0.000283695
Heightened Def Con from 0.000284225 ++to 0.000284225
Heightened Def Con from 0.000284225 to 0.000284225
Heightened Def Con from 0.000284225 to 0.000284225
Heightened Def Con from 0.000284225 ++to 0.000284225
Heightened Def Con from 0.000284225 to 0.000284225
Heightened Def Con from 0.000285225 to 0.000285225
Heightened Def Con from 0.00028539 to 0.00028539
Heightened Def Con from 0.000285495 to 0.000285495
Heightened Def Con from 0.000285525 to 0.000285525
Heightened Def Con from 0.000285591 to 0.000285591
Heightened Def Con from 0.000285825 to 0.000285825
Heightened Def Con from 0.000285925 to 0.000285925
Heightened Def Con from 0.000286025 to 0.000286025
Heightened Def Con from 0.000286295 to 0.000286295
Heightened Def Con from 0.000286295 to 0.000286295
Heightened Def Con from 0.000286695 to 0.000286695
Heightened Def Con from 0.000286895 to 0.000286895
Heightened Def Con from 0.000286895 ++++to 0.000286895
Heightened Def Con from 0.000286895 ++to 0.000286895
Heightened Def Con from 0.000287025 to 0.000287025
Heightened Def Con from 0.000287124 to 0.000287124
Heightened Def Con from 0.000287124 to 0.000287124
Heightened Def Con from 0.000287324 to 0.000287324
Heightened Def Con from 0.000287425 +++++to 0.000287425
Heightened Def Con from 0.000287425 to 0.000287425
Heightened Def Con from 0.000287695 ++++to 0.000287695
Heightened Def Con from 0.000287724 to 0.000287724
Heightened Def Con from 0.00028779 to 0.00028779
Heightened Def Con from 0.000287986 to 0.000287986
Heightened Def Con from 0.000288724 to 0.000288724
Heightened Def Con from 0.000288826 to 0.000288826
Heightened Def Con from 0.000288998 to 0.000288998
Heightened Def Con from 0.000288998 to 0.000288998
Heightened Def Con from 0.000288998 to 0.000288998
Heightened Def Con from 0.000289425 ++to 0.000289425
Heightened Def Con from 0.000289524 to 0.000289524
Heightened Def Con from 0.000289695 +to 0.000289695
Heightened Def Con from 0.000289724 to 0.000289724
Heightened Def Con from 0.000289794 to 0.000289794
Heightened Def Con from 0.000289984 to 0.000289984
Heightened Def Con from 0.000290026 ++++to 0.000290026
Heightened Def Con from 0.000290026 to 0.000290026
Heightened Def Con from 0.000290295 to 0.000290295
Heightened Def Con from 0.000290426 ++to 0.000290426
Heightened Def Con from 0.000290826 to 0.000290826
Heightened Def Con from 0.000290895 +++++to 0.000290895
Heightened Def Con from 0.000290895 ++++to 0.000290895
Heightened Def Con from 0.000290895 to 0.000290895
Heightened Def Con from 0.000291394 +to 0.000291394
Heightened Def Con from 0.000291394 to 0.000291394
Heightened Def Con from 0.000291524 +to 0.000291524
Heightened Def Con from 0.000291524 to 0.000291524
Heightened Def Con from 0.000291825 to 0.000291825
Heightened Def Con from 0.000292625 to 0.000292625
Heightened Def Con from 0.000292826 to 0.000292826
Heightened Def Con from 0.000292996 to 0.000292996
Heightened Def Con from 0.000293025 +++to 0.000293025
Heightened Def Con from 0.000293124 to 0.000293124
Heightened Def Con from 0.000293324 to 0.000293324
Heightened Def Con from 0.000293324 to 0.000293324
Heightened Def Con from 0.000293394 to 0.000293395
Heightened Def Con from 0.000293425 to 0.000293425
Heightened Def Con from 0.000293425 to 0.000293425
Heightened Def Con from 0.000293425 +++++to 0.000293425
Heightened Def Con from 0.000294426 to 0.000294426
Heightened Def Con from 0.000294625 to 0.000294625
Heightened Def Con from 0.000294625 to 0.000294625
Heightened Def Con from 0.000294782 to 0.000294782
Heightened Def Con from 0.000294895 to 0.000294895
Heightened Def Con from 0.000294895 to 0.000294895
Heightened Def Con from 0.000294998 to 0.000294998
Heightened Def Con from 0.000295924 to 0.000295924
Heightened Def Con from 0.000296026 ++++to 0.000296026
Heightened Def Con from 0.000296026 to 0.000296026
Heightened Def Con from 0.000296225 to 0.000296225
Heightened Def Con from 0.000296225 to 0.000296225
Heightened Def Con from 0.000296324 to 0.000296324
Heightened Def Con from 0.000296625 +to 0.000296625
Heightened Def Con from 0.000296625 to 0.000296625
Heightened Def Con from 0.000296694 ++++++to 0.000296694
Heightened Def Con from 0.000296894 ++++to 0.000296894
Heightened Def Con from 0.000296894 to 0.000296894
Heightened Def Con from 0.000297094 +to 0.000297094
Heightened Def Con from 0.000297094 to 0.000297094
Heightened Def Con from 0.000297183 to 0.000297183
Heightened Def Con from 0.000297183 to 0.000297183
Heightened Def Con from 0.000297324 ++to 0.000297324
Heightened Def Con from 0.000297324 to 0.000297324
Heightened Def Con from 0.000297324 +++++to 0.000297324
Heightened Def Con from 0.000297524 to 0.000297524
Heightened Def Con from 0.000297524 to 0.000297524
Heightened Def Con from 0.000298225 to 0.000298225
Heightened Def Con from 0.000298894 to 0.000298894
Heightened Def Con from 0.000298894 to 0.000298894
Heightened Def Con from 0.000298999 to 0.000298999
Heightened Def Con from 0.000298999 to 0.000298999
Heightened Def Con from 0.000298999 to 0.000298999
Heightened Def Con from 0.000299094 to 0.000299094
Heightened Def Con from 0.000299124 to 0.000299124
Heightened Def Con from 0.000299226 to 0.000299226
Heightened Def Con from 0.000299294 ++++++to 0.000299294
Heightened Def Con from 0.000299324 to 0.000299324
Heightened Def Con from 0.000299324 to 0.000299324
Heightened Def Con from 0.000299494 ++++++to 0.000299494
Heightened Def Con from 0.000299494 to 0.000299494
Heightened Def Con from 0.000299626 to 0.000299626
Heightened Def Con from 0.000299694 to 0.000299694
Heightened Def Con from 0.000299694 to 0.000299694
Heightened Def Con from 0.000299804 to 0.000299804
Heightened Def Con from 0.000299804 to 0.000299804
Heightened Def Con from 0.000299825 to 0.000299825
Heightened Def Con from 0.000299924 to 0.000299924
Heightened Def Con from 0.000299984 to 0.000299984
Heightened Def Con from 0.000299984 to 0.000299984
Heightened Def Con from 0.000300094 to 0.000300094
Heightened Def Con from 0.000300094 ++++++to 0.000300094
Heightened Def Con from 0.000300094 +++++to 0.000300094
Heightened Def Con from 0.000300124 to 0.000300124
Heightened Def Con from 0.000300124 to 0.000300124
Heightened Def Con from 0.000300724 to 0.000300724
Heightened Def Con from 0.000300894 ++++++to 0.000300894
Heightened Def Con from 0.000300894 to 0.000300894
Heightened Def Con from 0.000301024 ++++to 0.000301024
Heightened Def Con from 0.000301185 +to 0.000301185
Heightened Def Con from 0.000301185 to 0.000301185
Heightened Def Con from 0.000301226 to 0.000301226
Heightened Def Con from 0.000301324 to 0.000301324
Heightened Def Con from 0.000301407 to 0.000301407
Heightened Def Con from 0.000301407 to 0.000301407
Heightened Def Con from 0.000301694 to 0.000301694
Heightened Def Con from 0.000301985 to 0.000301985
Heightened Def Con from 0.000301985 to 0.000301985
Heightened Def Con from 0.000302094 ++++to 0.000302094
Heightened Def Con from 0.000302094 to 0.000302094
Heightened Def Con from 0.000302124 ++to 0.000302124
Heightened Def Con from 0.000302124 ++to 0.000302124
Heightened Def Con from 0.000302124 to 0.000302124
Heightened Def Con from 0.000302426 +++++to 0.000302426
Heightened Def Con from 0.000302494 to 0.000302494
Heightened Def Con from 0.000302623 to 0.000302623
Heightened Def Con from 0.000302826 to 0.000302826
Heightened Def Con from 0.000302924 to 0.000302924
Heightened Def Con from 0.000303093 to 0.000303093
Heightened Def Con from 0.000303093 to 0.000303093
Heightened Def Con from 0.000303225 to 0.000303225
Heightened Def Con from 0.000303725 to 0.000303725
Heightened Def Con from 0.000303725 to 0.000303725
Heightened Def Con from 0.000303725 to 0.000303725
Heightened Def Con from 0.000303825 to 0.000303825
Heightened Def Con from 0.000303825 +to 0.000303825
Heightened Def Con from 0.000303825 to 0.000303825
Heightened Def Con from 0.000304025 to 0.000304025
Heightened Def Con from 0.000304025 to 0.000304025
Heightened Def Con from 0.000304493 to 0.000304493
Heightened Def Con from 0.000304493 +++++to 0.000304493
Heightened Def Con from 0.000304493 to 0.000304493
Heightened Def Con from 0.000304693 to 0.000304693
Heightened Def Con from 0.000304786 to 0.000304786
Heightened Def Con from 0.000304786 to 0.000304786
Heightened Def Con from 0.000304786 to 0.000304786
Heightened Def Con from 0.000304826 to 0.000304826
Heightened Def Con from 0.000304826 to 0.000304826
Heightened Def Con from 0.000304826 to 0.000304826
Heightened Def Con from 0.000304826 to 0.000304826
Heightened Def Con from 0.000304893 to 0.000304893
Heightened Def Con from 0.000304893 to 0.000304893
Heightened Def Con from 0.000304925 to 0.000304925
Heightened Def Con from 0.000305414 to 0.000305414
Heightened Def Con from 0.000305625 to 0.000305625
Heightened Def Con from 0.000305987 to 0.000305987
Heightened Def Con from 0.000306025 to 0.000306025
Heightened Def Con from 0.000306224 ++to 0.000306224
Heightened Def Con from 0.000306224 to 0.000306224
Heightened Def Con from 0.000306326 to 0.000306326
Heightened Def Con from 0.000306326 to 0.000306326
Heightened Def Con from 0.000306425 to 0.000306425
Heightened Def Con from 0.000306493 +++++++to 0.000306493
Heightened Def Con from 0.000306525 to 0.000306525
Heightened Def Con from 0.000306726 to 0.000306726
Heightened Def Con from 0.000307423 to 0.000307423
Heightened Def Con from 0.000307423 to 0.000307423
Heightened Def Con from 0.000307492 to 0.000307492
Heightened Def Con from 0.000308092 ++++++to 0.000308092
Heightened Def Con from 0.000308092 to 0.000308092
Heightened Def Con from 0.000308292 to 0.000308292
Heightened Def Con from 0.000308292 +++++++to 0.000308292
Heightened Def Con from 0.000308326 to 0.000308326
Heightened Def Con from 0.000308326 to 0.000308326
Heightened Def Con from 0.000308326 to 0.000308326
Heightened Def Con from 0.000308927 +to 0.000308927
Heightened Def Con from 0.000308927 to 0.000308927
Heightened Def Con from 0.000308927 to 0.000308927
Heightened Def Con from 0.000309126 to 0.000309126
Heightened Def Con from 0.000309126 to 0.000309126
Heightened Def Con from 0.000309225 to 0.000309225
Heightened Def Con from 0.000309425 +++++to 0.000309425
Heightened Def Con from 0.000309623 to 0.000309623
Heightened Def Con from 0.000309623 to 0.000309623
Heightened Def Con from 0.000311292 to 0.000311292
Heightened Def Con from 0.000311292 to 0.000311292
Heightened Def Con from 0.000311292 to 0.000311292
Heightened Def Con from 0.000311692 to 0.000311692
Heightened Def Con from 0.000312024 to 0.000312024
Heightened Def Con from 0.000312291 +++++++to 0.000312291
Heightened Def Con from 0.000312403 to 0.000312403
Heightened Def Con from 0.000312691 +++++to 0.000312691
Heightened Def Con from 0.000312728 +to 0.000312728
Heightened Def Con from 0.000312728 to 0.000312728
Heightened Def Con from 0.000312891 +to 0.000312891
Heightened Def Con from 0.000312891 to 0.000312891
Heightened Def Con from 0.000312928 to 0.000312928
Heightened Def Con from 0.000313201 to 0.000313201
Heightened Def Con from 0.000313224 +++to 0.000313224
Heightened Def Con from 0.000313224 to 0.000313224
Heightened Def Con from 0.000313291 to 0.000313291
Heightened Def Con from 0.000313291 +++to 0.000313291
Heightened Def Con from 0.000313291 to 0.000313291
Heightened Def Con from 0.000313291 ++to 0.000313291
Heightened Def Con from 0.000313291 +++++++to 0.000313291
Heightened Def Con from 0.000313291 +++++to 0.000313291
Heightened Def Con from 0.000313291 to 0.000313291
Heightened Def Con from 0.000313491 to 0.000313491
Heightened Def Con from 0.000313491 to 0.000313491
Heightened Def Con from 0.000313596 to 0.000313596
Heightened Def Con from 0.000313596 to 0.000313596
Heightened Def Con from 0.000313596 to 0.000313596
Heightened Def Con from 0.000313891 to 0.000313891
Heightened Def Con from 0.000313891 to 0.000313891
Heightened Def Con from 0.000314024 ++++to 0.000314024
Heightened Def Con from 0.000314024 to 0.000314024
Heightened Def Con from 0.000314219 to 0.000314219
Heightened Def Con from 0.000314291 to 0.000314291
Heightened Def Con from 0.00031461 to 0.00031461
Heightened Def Con from 0.000314929 to 0.000314929
Heightened Def Con from 0.000315091 to 0.000315091
Heightened Def Con from 0.000315091 to 0.000315091
Heightened Def Con from 0.000315091 to 0.000315091
Heightened Def Con from 0.000315091 to 0.000315091
Heightened Def Con from 0.000315291 to 0.000315291
Heightened Def Con from 0.000315611 to 0.000315611
Heightened Def Con from 0.000315623 to 0.000315623
Heightened Def Con from 0.000315891 to 0.000315891
Heightened Def Con from 0.000316023 to 0.000316023
Heightened Def Con from 0.000316023 to 0.000316023
Heightened Def Con from 0.00031621 to 0.00031621
Heightened Def Con from 0.00031621 to 0.00031621
Heightened Def Con from 0.00031621 +to 0.00031621
Heightened Def Con from 0.00031621 to 0.00031621
Heightened Def Con from 0.000316412 to 0.000316412
Heightened Def Con from 0.000316613 to 0.000316613
Heightened Def Con from 0.000316613 to 0.000316613
Heightened Def Con from 0.000316623 to 0.000316623
Heightened Def Con from 0.000316823 to 0.000316823
Heightened Def Con from 0.000316823 +to 0.000316823
Heightened Def Con from 0.00031693 +++++to 0.00031693
Heightened Def Con from 0.000317023 +to 0.000317023
Heightened Def Con from 0.000317023 to 0.000317023
Heightened Def Con from 0.000317023 to 0.000317023
Heightened Def Con from 0.000317411 to 0.000317411
Heightened Def Con from 0.000317623 to 0.000317623
Heightened Def Con from 0.000318131 to 0.000318131
Heightened Def Con from 0.000318214 to 0.000318214
Heightened Def Con from 0.000318331 to 0.000318331
Heightened Def Con from 0.000318331 to 0.000318331
Heightened Def Con from 0.000318331 to 0.000318331
Heightened Def Con from 0.000318331 to 0.000318331
Heightened Def Con from 0.000318531 to 0.000318531
Heightened Def Con from 0.000318613 to 0.000318613
Heightened Def Con from 0.000318623 +++to 0.000318623
Heightened Def Con from 0.000318732 ++++to 0.000318732
Heightened Def Con from 0.000318732 to 0.000318732
Heightened Def Con from 0.000319132 to 0.000319132
Heightened Def Con from 0.000319332 to 0.000319332
Heightened Def Con from 0.000320133 to 0.000320133
Heightened Def Con from 0.000320133 to 0.000320133
Heightened Def Con from 0.000320133 to 0.000320133
Heightened Def Con from 0.000320333 to 0.000320333
Heightened Def Con from 0.000320491 +to 0.000320491
Heightened Def Con from 0.000320491 to 0.000320491
Heightened Def Con from 0.000320533 to 0.000320533
Heightened Def Con from 0.000320533 to 0.000320533
Heightened Def Con from 0.000320733 to 0.000320733
Heightened Def Con from 0.000321133 +to 0.000321133
Heightened Def Con from 0.000322334 to 0.000322334
Heightened Def Con from 0.000322334 to 0.000322334
Heightened Def Con from 0.000322934 ++++to 0.000322934
Heightened Def Con from 0.000323535 to 0.000323535
Heightened Def Con from 0.000323735 to 0.000323735
Heightened Def Con from 0.000324135 to 0.000324135
Heightened Def Con from 0.000325693 to 0.000325693
Heightened Def Con from 0.000326137 to 0.000326137
Heightened Def Con from 0.000326737 to 0.000326737
Heightened Def Con from 0.000327093 to 0.000327093
Heightened Def Con from 0.000327093 ++++++++to 0.000327093
Heightened Def Con from 0.000327093 to 0.000327093
Heightened Def Con from 0.000327293 +to 0.000327293
Heightened Def Con from 0.000327293 to 0.000327293
Heightened Def Con from 0.000327293 ++to 0.000327293
Heightened Def Con from 0.000327293 ++to 0.000327293
Heightened Def Con from 0.000328138 to 0.000328138
Heightened Def Con from 0.000328339 to 0.000328339
Heightened Def Con from 0.000329339 to 0.000329339
Heightened Def Con from 0.00033074 to 0.00033074
Heightened Def Con from 0.00033174 to 0.00033174
Heightened Def Con from 0.00033174 to 0.00033174
Heightened Def Con from 0.000332541 to 0.000332541
Heightened Def Con from 0.000333095 to 0.000333095
Heightened Def Con from 0.000333095 to 0.000333095
Heightened Def Con from 0.000333095 to 0.000333095
Heightened Def Con from 0.000333095 to 0.000333095
Heightened Def Con from 0.000333095 to 0.000333095
Heightened Def Con from 0.000333095 to 0.000333095
Heightened Def Con from 0.000333495 to 0.000333495
Heightened Def Con from 0.000333495 to 0.000333495
Heightened Def Con from 0.000333542 to 0.000333542
Heightened Def Con from 0.000333742 to 0.000333742
Heightened Def Con from 0.000334543 +++to 0.000334543
Heightened Def Con from 0.000334543 to 0.000334543
Heightened Def Con from 0.000334695 +++++to 0.000334695
Heightened Def Con from 0.000334695 to 0.000334695
Heightened Def Con from 0.000335144 to 0.000335144
Heightened Def Con from 0.000335144 to 0.000335144
Heightened Def Con from 0.000335144 to 0.000335144
Heightened Def Con from 0.000336945 to 0.000336945
Heightened Def Con from 0.000337296 to 0.000337296
Heightened Def Con from 0.000337296 ++++++to 0.000337296
Heightened Def Con from 0.000337296 +++++++to 0.000337296
Heightened Def Con from 0.000337296 ++++++++to 0.000337296
Heightened Def Con from 0.000337296 ++++++to 0.000337296
Heightened Def Con from 0.000337296 +++++++to 0.000337296
Heightened Def Con from 0.000337296 to 0.000337296
Heightened Def Con from 0.000338146 +++to 0.000338146
Heightened Def Con from 0.000338146 to 0.000338146
Heightened Def Con from 0.000338946 to 0.000338946
Heightened Def Con from 0.000338946 to 0.000338946
Heightened Def Con from 0.000339147 to 0.000339147
Heightened Def Con from 0.000339147 to 0.000339147
Heightened Def Con from 0.000339547 to 0.000339547
Heightened Def Con from 0.000339547 to 0.000339547
Heightened Def Con from 0.000341548 to 0.000341548
Heightened Def Con from 0.000342149 to 0.000342149
Heightened Def Con from 0.000342149 to 0.000342149
Heightened Def Con from 0.000342149 to 0.000342149
Heightened Def Con from 0.000342348 to 0.000342348
Heightened Def Con from 0.000342698 +to 0.000342698
Heightened Def Con from 0.000342698 to 0.000342698
Heightened Def Con from 0.000342749 to 0.000342749
Heightened Def Con from 0.000343149 ++++to 0.000343149
Heightened Def Con from 0.00034415 ++++to 0.00034415
Heightened Def Con from 0.00034415 to 0.00034415
Heightened Def Con from 0.000345899 to 0.000345899
Heightened Def Con from 0.000345899 to 0.000345899
Heightened Def Con from 0.000346351 to 0.000346351
Heightened Def Con from 0.000346351 to 0.000346351
Heightened Def Con from 0.000346351 to 0.000346351
Heightened Def Con from 0.000347151 ++++to 0.000347151
Heightened Def Con from 0.000347151 +to 0.000347151
Heightened Def Con from 0.000347151 to 0.000347151
Heightened Def Con from 0.000348551 to 0.000348551
Heightened Def Con from 0.000348551 to 0.000348551
Heightened Def Con from 0.000350752 to 0.000350752
Heightened Def Con from 0.000350952 to 0.000350952
Heightened Def Con from 0.000351952 ++++to 0.000351952
Heightened Def Con from 0.000352153 ++to 0.000352153
Heightened Def Con from 0.000352953 ++++++to 0.000352953
Heightened Def Con from 0.000352953 to 0.000352953
Heightened Def Con from 0.000353553 ++++++to 0.000353553
Heightened Def Con from 0.000357102 to 0.000357102
Heightened Def Con from 0.000357754 +++++to 0.000357754
Heightened Def Con from 0.000357754 to 0.000357754
Heightened Def Con from 0.000357954 to 0.000357954
Heightened Def Con from 0.000359354 ++++++to 0.000359354
Heightened Def Con from 0.000359354 to 0.000359354
Heightened Def Con from 0.000362703 ++++to 0.000362703
Heightened Def Con from 0.000362703 ++++to 0.000362703
Heightened Def Con from 0.000362703 ++++to 0.000362703
Heightened Def Con from 0.000362703 to 0.000362703
Heightened Def Con from 0.000362703 +++to 0.000362703
Heightened Def Con from 0.000362703 +++++to 0.000362703
Heightened Def Con from 0.000362703 to 0.000362703
Heightened Def Con from 0.000362755 +++++to 0.000362755
Heightened Def Con from 0.000362755 to 0.000362755
Heightened Def Con from 0.000362955 ++++to 0.000362955
Heightened Def Con from 0.000362955 to 0.000362955
Heightened Def Con from 0.000363555 ++++to 0.000363555
Heightened Def Con from 0.000363555 ++++++to 0.000363555
Heightened Def Con from 0.000363755 ++++to 0.000363755
Heightened Def Con from 0.000363755 +to 0.000363755
Heightened Def Con from 0.000363755 to 0.000363755
Heightened Def Con from 0.000363755 +++++++to 0.000363755
Heightened Def Con from 0.000363755 +++++++to 0.000363755
Heightened Def Con from 0.000364103 to 0.000364103
Heightened Def Con from 0.000364555 to 0.000364555
Heightened Def Con from 0.000364555 ++to 0.000364555
Heightened Def Con from 0.000364555 to 0.000364555
Heightened Def Con from 0.000364756 to 0.000364756
Heightened Def Con from 0.000364756 to 0.000364756
Heightened Def Con from 0.000366703 to 0.000366703
Heightened Def Con from 0.000367356 to 0.000367356
Heightened Def Con from 0.000368303 ++to 0.000368303
Heightened Def Con from 0.000368303 to 0.000368303
Heightened Def Con from 0.000368303 to 0.000368303
Heightened Def Con from 0.000368356 to 0.000368356
Heightened Def Con from 0.000369503 to 0.000369503
Heightened Def Con from 0.000369503 +++++to 0.000369503
Heightened Def Con from 0.000369503 to 0.000369503
Heightened Def Con from 0.000372504 ++to 0.000372504
Heightened Def Con from 0.000372504 ++++++++++to 0.000372504
Heightened Def Con from 0.000372504 ++++++++to 0.000372504
Heightened Def Con from 0.000372504 +++++++++to 0.000372504
Heightened Def Con from 0.000372504 +++++++++to 0.000372504
Heightened Def Con from 0.000372504 ++++++++++to 0.000372504
Heightened Def Con from 0.000373957 ++++++to 0.000373957
Heightened Def Con from 0.000373957 ++++to 0.000373957
Heightened Def Con from 0.000374757 +++++to 0.000374757
Heightened Def Con from 0.000378157 to 0.000378157
Heightened Def Con from 0.000378304 to 0.000378304
Heightened Def Con from 0.000380104 ++++++++to 0.000380104
Heightened Def Con from 0.000380104 +++++to 0.000380104
Heightened Def Con from 0.000380757 to 0.000380757
Heightened Def Con from 0.000380757 to 0.000380757
Heightened Def Con from 0.000382304 to 0.000382304
Heightened Def Con from 0.000382304 +to 0.000382304
Heightened Def Con from 0.000382304 ++++++to 0.000382304
Heightened Def Con from 0.000382304 to 0.000382304
Heightened Def Con from 0.000382304 +++++++++to 0.000382304
Heightened Def Con from 0.000382304 to 0.000382304
Heightened Def Con from 0.000382504 to 0.000382504
Heightened Def Con from 0.000382504 +to 0.000382504
Heightened Def Con from 0.000382504 to 0.000382504
Heightened Def Con from 0.000382504 to 0.000382504
Heightened Def Con from 0.000383104 to 0.000383104
Heightened Def Con from 0.000383157 +++++++to 0.000383157
Heightened Def Con from 0.000385103 to 0.000385103
Heightened Def Con from 0.000385103 to 0.000385103
Heightened Def Con from 0.000385103 to 0.000385103
Heightened Def Con from 0.000385103 ++to 0.000385103
Heightened Def Con from 0.000385103 to 0.000385103
Heightened Def Con from 0.000385103 to 0.000385103
Heightened Def Con from 0.000386703 to 0.000386703
Heightened Def Con from 0.000387356 +++++to 0.000387356
Heightened Def Con from 0.000387356 to 0.000387356
Heightened Def Con from 0.000387756 to 0.000387756
Heightened Def Con from 0.000387756 to 0.000387756
Heightened Def Con from 0.000389156 ++++++to 0.000389156
Heightened Def Con from 0.000392303 to 0.000392303
Heightened Def Con from 0.000394955 to 0.000394955
Heightened Def Con from 0.000396554 to 0.000396554
Heightened Def Con from 0.000399154 +++++to 0.000399154
Heightened Def Con from 0.000401701 +to 0.000401701
Heightened Def Con from 0.000401701 +++++to 0.000401701
Heightened Def Con from 0.000401701 to 0.000401701
Heightened Def Con from 0.000401953 to 0.000401953
Heightened Def Con from 0.000401953 to 0.000401953
Heightened Def Con from 0.000401953 to 0.000401953
Heightened Def Con from 0.000403352 to 0.000403352
Heightened Def Con from 0.000404352 ++++to 0.000404352
Heightened Def Con from 0.000406552 to 0.000406552
Heightened Def Con from 0.000406952 to 0.000406952
Heightened Def Con from 0.000407352 to 0.000407352
Heightened Def Con from 0.000407952 to 0.000407952
Heightened Def Con from 0.000408152 to 0.000408152
Heightened Def Con from 0.000408152 to 0.000408152
Heightened Def Con from 0.000409551 to 0.000409551
Heightened Def Con from 0.000410099 +to 0.000410099
Heightened Def Con from 0.000410099 to 0.000410099
Heightened Def Con from 0.00041015 to 0.00041015
Heightened Def Con from 0.00041055 to 0.00041055
Heightened Def Con from 0.00041055 to 0.00041055
Heightened Def Con from 0.00041055 +++++to 0.00041055
Heightened Def Con from 0.00041055 to 0.00041055
Heightened Def Con from 0.000410949 to 0.000410949
Heightened Def Con from 0.000411749 +++++to 0.000411749
Heightened Def Con from 0.000411749 to 0.000411749
Heightened Def Con from 0.000411948 to 0.000411948
Heightened Def Con from 0.000411948 to 0.000411948
Heightened Def Con from 0.000412148 to 0.000412148
Heightened Def Con from 0.000412348 to 0.000412348
Heightened Def Con from 0.000412348 to 0.000412348
Heightened Def Con from 0.000413148 to 0.000413148
Heightened Def Con from 0.000414347 to 0.000414347
Heightened Def Con from 0.000414946 to 0.000414946
Heightened Def Con from 0.000414946 to 0.000414946
Heightened Def Con from 0.000414946 to 0.000414946
Heightened Def Con from 0.000414946 to 0.000414946
Heightened Def Con from 0.000414946 to 0.000414946
Heightened Def Con from 0.000415546 to 0.000415546
Heightened Def Con from 0.000415946 ++to 0.000415946
Heightened Def Con from 0.000415946 ++++to 0.000415946
Heightened Def Con from 0.000416545 to 0.000416545
Heightened Def Con from 0.000416945 to 0.000416945
Heightened Def Con from 0.000417744 to 0.000417744
Heightened Def Con from 0.000417945 ++++to 0.000417945
Heightened Def Con from 0.000418019 to 0.000418019
Heightened Def Con from 0.000418097 to 0.000418097
Heightened Def Con from 0.000418344 +++to 0.000418344
Heightened Def Con from 0.000418344 ++to 0.000418344
Heightened Def Con from 0.000418344 to 0.000418344
Heightened Def Con from 0.000418344 to 0.000418344
Heightened Def Con from 0.000418344 to 0.000418344
Heightened Def Con from 0.000418544 to 0.000418544
Heightened Def Con from 0.000418544 +++++to 0.000418544
Heightened Def Con from 0.000419143 to 0.000419143
Heightened Def Con from 0.000419615 to 0.000419615
Heightened Def Con from 0.000420019 to 0.000420019
Heightened Def Con from 0.000420215 to 0.000420215
Heightened Def Con from 0.000420215 to 0.000420215
Heightened Def Con from 0.000420215 to 0.000420215
Heightened Def Con from 0.000421013 to 0.000421013
Heightened Def Con from 0.00042122 to 0.00042122
Heightened Def Con from 0.00042122 to 0.00042122
Heightened Def Con from 0.00042162 ++to 0.00042162
Heightened Def Con from 0.000422096 to 0.000422096
Heightened Def Con from 0.00042242 to 0.00042242
Heightened Def Con from 0.000422696 to 0.000422696
Heightened Def Con from 0.000422696 +++++to 0.000422696
Heightened Def Con from 0.000422696 to 0.000422696
Heightened Def Con from 0.000423141 to 0.000423141
Heightened Def Con from 0.00042334 to 0.00042334
Heightened Def Con from 0.00042354 to 0.00042354
Heightened Def Con from 0.00042362 to 0.00042362
Heightened Def Con from 0.000424095 to 0.000424095
Heightened Def Con from 0.00042434 to 0.00042434
Heightened Def Con from 0.000425221 to 0.000425221
Heightened Def Con from 0.000425421 to 0.000425421
Heightened Def Con from 0.000425608 to 0.000425608
Heightened Def Con from 0.000426895 to 0.000426895
Heightened Def Con from 0.000426895 +++++to 0.000426895
Heightened Def Con from 0.000426895 +++++to 0.000426895
Heightened Def Con from 0.000426895 +to 0.000426895
[...]
Heightened Def Con from 0.00310722 to 0.00310722
Heightened Def Con from 0.00310793 to 0.00310793
Heightened Def Con from 0.00310833 to 0.00310833
Heightened Def Con from 0.00310862 ++++to 0.00310862
Heightened Def Con from 0.00310902 to 0.00310902
Heightened Def Con from 0.00310902 to 0.00310902
Heightened Def Con from 0.00310913 to 0.00310913
Heightened Def Con from 0.00310913 to 0.00310913
Heightened Def Con from 0.00310913 to 0.00310913
Heightened Def Con from 0.00310933 to 0.00310933
Heightened Def Con from 0.00310933 to 0.00310933
Heightened Def Con from 0.00310982 +++++to 0.00310982
Heightened Def Con from 0.00310989 to 0.00310989
Heightened Def Con from 0.00310993 to 0.00310993
Heightened Def Con from 0.00311002 to 0.00311002
Heightened Def Con from 0.00311002 to 0.00311002
Heightened Def Con from 0.00311013 ++to 0.00311013
Heightened Def Con from 0.00311013 to 0.00311013
Heightened Def Con from 0.0031106 to 0.0031106
Heightened Def Con from 0.00311082 to 0.00311082
Heightened Def Con from 0.00311082 ++to 0.00311082
Heightened Def Con from 0.00311113 to 0.00311113
Heightened Def Con from 0.00311113 to 0.00311113
Heightened Def Con from 0.00311142 to 0.00311142
Heightened Def Con from 0.00311182 to 0.00311182
Heightened Def Con from 0.00311182 to 0.00311182
Heightened Def Con from 0.00311189 ++++to 0.00311189
Heightened Def Con from 0.00311233 +++to 0.00311233
Heightened Def Con from 0.00311233 to 0.00311233
Heightened Def Con from 0.00311233 to 0.00311233
Heightened Def Con from 0.00311233 to 0.00311233
Heightened Def Con from 0.00311333 to 0.00311333
Heightened Def Con from 0.0031134 to 0.0031134
Heightened Def Con from 0.0031134 to 0.0031134
Heightened Def Con from 0.0031138 to 0.0031138
Heightened Def Con from 0.0031138 to 0.0031138
Heightened Def Con from 0.0031138 to 0.0031138
Heightened Def Con from 0.00311403 to 0.00311403
Heightened Def Con from 0.00311473 to 0.00311473
Heightened Def Con from 0.00311513 to 0.00311513
Heightened Def Con from 0.00311529 to 0.00311529
Heightened Def Con from 0.00311549 to 0.00311549
Heightened Def Con from 0.0031158 to 0.0031158
Heightened Def Con from 0.0031158 +++to 0.0031158
Heightened Def Con from 0.00311603 to 0.00311603
Heightened Def Con from 0.00311622 to 0.00311622
Heightened Def Con from 0.00311622 to 0.00311622
Heightened Def Con from 0.00311622 to 0.00311622
Heightened Def Con from 0.00311622 to 0.00311622
Heightened Def Con from 0.00311662 +to 0.00311662
Heightened Def Con from 0.00311662 to 0.00311662
Heightened Def Con from 0.00311669 to 0.00311669
Heightened Def Con from 0.00311679 to 0.00311679
Heightened Def Con from 0.00311703 to 0.00311703
Heightened Def Con from 0.00311722 to 0.00311722
Heightened Def Con from 0.00311732 to 0.00311732
Heightened Def Con from 0.00311743 to 0.00311743
Heightened Def Con from 0.00311743 to 0.00311743
Heightened Def Con from 0.00311759 to 0.00311759
Heightened Def Con from 0.00311759 to 0.00311759
Heightened Def Con from 0.00311769 ++++++to 0.00311769
Heightened Def Con from 0.00311769 to 0.00311769
Heightened Def Con from 0.00311772 to 0.00311772
Heightened Def Con from 0.00311779 to 0.00311779
Heightened Def Con from 0.00311809 to 0.00311809
Heightened Def Con from 0.00311822 ++++to 0.00311822
Heightened Def Con from 0.0031187 to 0.0031187
Heightened Def Con from 0.0031187 to 0.0031187
Heightened Def Con from 0.0031187 to 0.0031187
Heightened Def Con from 0.00311872 to 0.00311872
Heightened Def Con from 0.00311912 ++++to 0.00311912
Heightened Def Con from 0.00311918 to 0.00311918
Heightened Def Con from 0.0031197 ++++to 0.0031197
Heightened Def Con from 0.00311972 ++++to 0.00311972
Heightened Def Con from 0.00311972 to 0.00311972
Heightened Def Con from 0.00311982 to 0.00311982
Heightened Def Con from 0.00312003 to 0.00312003
Heightened Def Con from 0.0031202 to 0.0031202
Heightened Def Con from 0.0031203 to 0.0031203
Heightened Def Con from 0.0031203 ++to 0.0031203
Heightened Def Con from 0.0031203 to 0.0031203
Heightened Def Con from 0.00312049 to 0.00312049
Heightened Def Con from 0.00312049 to 0.00312049
Heightened Def Con from 0.00312063 to 0.00312063
Heightened Def Con from 0.00312092 to 0.00312092
Heightened Def Con from 0.00312092 +to 0.00312092
Heightened Def Con from 0.00312092 to 0.00312092
Heightened Def Con from 0.0031211 to 0.0031211
Heightened Def Con from 0.0031211 to 0.0031211
Heightened Def Con from 0.00312139 to 0.00312139
Heightened Def Con from 0.00312139 +to 0.00312139
Heightened Def Con from 0.00312172 to 0.00312172
Heightened Def Con from 0.00312203 to 0.00312203
Heightened Def Con from 0.00312232 to 0.00312232
Heightened Def Con from 0.00312232 to 0.00312232
Heightened Def Con from 0.00312252 ++++to 0.00312252
Heightened Def Con from 0.00312269 to 0.00312269
Heightened Def Con from 0.00312269 to 0.00312269
Heightened Def Con from 0.00312283 to 0.00312283
Heightened Def Con from 0.00312283 +++++to 0.00312283
Heightened Def Con from 0.00312289 +to 0.00312289
Heightened Def Con from 0.00312303 to 0.00312303
Heightened Def Con from 0.00312309 to 0.00312309
Heightened Def Con from 0.00312309 to 0.00312309
Heightened Def Con from 0.00312379 to 0.00312379
Heightened Def Con from 0.00312383 to 0.00312383
Heightened Def Con from 0.00312423 +to 0.00312423
Heightened Def Con from 0.00312423 to 0.00312423
Heightened Def Con from 0.00312478 to 0.00312478
Heightened Def Con from 0.00312478 to 0.00312478
Heightened Def Con from 0.00312499 to 0.00312499
Heightened Def Con from 0.00312499 to 0.00312499
Heightened Def Con from 0.00312499 to 0.00312499
Heightened Def Con from 0.00312503 to 0.00312503
Heightened Def Con from 0.00312503 +++to 0.00312503
Heightened Def Con from 0.00312509 +++++to 0.00312509
Heightened Def Con from 0.00312509 to 0.00312509
Heightened Def Con from 0.00312563 to 0.00312563
Heightened Def Con from 0.00312563 +++++to 0.00312563
Heightened Def Con from 0.00312583 to 0.00312583
Heightened Def Con from 0.00312583 to 0.00312583
Heightened Def Con from 0.00312583 to 0.00312583
Heightened Def Con from 0.00312583 to 0.00312583
Heightened Def Con from 0.00312598 to 0.00312598
Heightened Def Con from 0.00312598 to 0.00312598
Heightened Def Con from 0.00312623 to 0.00312623
Heightened Def Con from 0.00312659 to 0.00312659
Heightened Def Con from 0.00312692 to 0.00312692
Heightened Def Con from 0.00312703 +++to 0.00312703
Heightened Def Con from 0.00312712 to 0.00312712
Heightened Def Con from 0.00312752 to 0.00312752
Heightened Def Con from 0.00312789 +++++to 0.00312789
Heightened Def Con from 0.00312789 to 0.00312789
Heightened Def Con from 0.00312829 to 0.00312829
Heightened Def Con from 0.00312829 +++++to 0.00312829
Heightened Def Con from 0.00312829 to 0.00312829
Heightened Def Con from 0.00312852 to 0.00312852
Heightened Def Con from 0.00312852 to 0.00312852
Heightened Def Con from 0.00312852 to 0.00312852
Heightened Def Con from 0.00312852 to 0.00312852
Heightened Def Con from 0.00312889 to 0.00312889
Heightened Def Con from 0.00312912 to 0.00312912
Heightened Def Con from 0.00312963 to 0.00312963
Heightened Def Con from 0.00312963 to 0.00312963
Heightened Def Con from 0.00313003 +++to 0.00313003
Heightened Def Con from 0.00313003 to 0.00313003
Heightened Def Con from 0.00313003 to 0.00313003
Heightened Def Con from 0.00313009 to 0.00313009
Heightened Def Con from 0.00313012 to 0.00313012
Heightened Def Con from 0.00313032 to 0.00313032
Heightened Def Con from 0.00313109 to 0.00313109
Heightened Def Con from 0.0031314 to 0.0031314
Heightened Def Con from 0.00313172 to 0.00313172
Heightened Def Con from 0.00313203 to 0.00313203
Heightened Def Con from 0.00313203 to 0.00313203
Heightened Def Con from 0.0031322 to 0.0031322
Heightened Def Con from 0.0031322 to 0.0031322
Heightened Def Con from 0.00313243 to 0.00313243
Heightened Def Con from 0.0031326 ++to 0.0031326
Heightened Def Con from 0.0031326 to 0.0031326
Heightened Def Con from 0.00313269 to 0.00313269
Heightened Def Con from 0.003133 to 0.003133
Heightened Def Con from 0.00313302 ++++to 0.00313302
Heightened Def Con from 0.00313318 to 0.00313318
Heightened Def Con from 0.00313323 +++++to 0.00313323
Heightened Def Con from 0.00313329 to 0.00313329
Heightened Def Con from 0.00313329 +++++to 0.00313329
Heightened Def Con from 0.00313329 to 0.00313329
Heightened Def Con from 0.00313332 to 0.00313332
Heightened Def Con from 0.00313349 +++++to 0.00313349
Heightened Def Con from 0.00313352 ++++to 0.00313352
Heightened Def Con from 0.00313369 ++++to 0.00313369
Heightened Def Con from 0.00313369 ++++to 0.00313369
Heightened Def Con from 0.00313372 to 0.00313372
Heightened Def Con from 0.00313389 to 0.00313389
Heightened Def Con from 0.00313403 +++to 0.00313403
Heightened Def Con from 0.00313403 to 0.00313403
Heightened Def Con from 0.00313412 to 0.00313412
Heightened Def Con from 0.0031346 to 0.0031346
Heightened Def Con from 0.0031346 to 0.0031346
Heightened Def Con from 0.00313462 ++++to 0.00313462
Heightened Def Con from 0.00313462 to 0.00313462
Heightened Def Con from 0.00313472 to 0.00313472
Heightened Def Con from 0.00313479 +to 0.00313479
Heightened Def Con from 0.00313479 to 0.00313479
Heightened Def Con from 0.00313483 to 0.00313483
Heightened Def Con from 0.00313529 to 0.00313529
Heightened Def Con from 0.00313529 to 0.00313529
Heightened Def Con from 0.00313558 to 0.00313558
Heightened Def Con from 0.00313558 to 0.00313558
Heightened Def Con from 0.00313569 +++to 0.00313569
Heightened Def Con from 0.00313582 to 0.00313582
Heightened Def Con from 0.00313582 ++to 0.00313582
Heightened Def Con from 0.00313612 to 0.00313612
Heightened Def Con from 0.00313622 to 0.00313622
Heightened Def Con from 0.00313632 to 0.00313632
Heightened Def Con from 0.00313652 to 0.00313652
Heightened Def Con from 0.00313652 to 0.00313652
Heightened Def Con from 0.00313662 to 0.00313662
Heightened Def Con from 0.00313662 to 0.00313662
Heightened Def Con from 0.00313669 ++++++to 0.00313669
Heightened Def Con from 0.00313669 to 0.00313669
Heightened Def Con from 0.00313669 to 0.00313669
Heightened Def Con from 0.00313709 to 0.00313709
Heightened Def Con from 0.00313709 to 0.00313709
Heightened Def Con from 0.00313712 to 0.00313712
Heightened Def Con from 0.00313719 to 0.00313719
Heightened Def Con from 0.00313732 +to 0.00313732
Heightened Def Con from 0.00313752 to 0.00313752
Heightened Def Con from 0.00313763 to 0.00313763
Heightened Def Con from 0.00313763 to 0.00313763
Heightened Def Con from 0.00313772 to 0.00313772
Heightened Def Con from 0.00313782 ++to 0.00313782
Heightened Def Con from 0.00313799 to 0.00313799
Heightened Def Con from 0.00313803 to 0.00313803
Heightened Def Con from 0.00313803 +++to 0.00313803
Heightened Def Con from 0.00313809 ++++++to 0.00313809
Heightened Def Con from 0.00313833 to 0.00313833
Heightened Def Con from 0.00313839 to 0.00313839
Heightened Def Con from 0.00313839 to 0.00313839
Heightened Def Con from 0.00313849 to 0.00313849
Heightened Def Con from 0.00313893 +++to 0.00313893
Heightened Def Con from 0.00313893 to 0.00313893
Heightened Def Con from 0.00313902 to 0.00313902
Heightened Def Con from 0.00313919 to 0.00313919
Heightened Def Con from 0.00313942 ++to 0.00313942
Heightened Def Con from 0.00313973 +++to 0.00313973
Heightened Def Con from 0.00313999 to 0.00313999
Heightened Def Con from 0.00314033 to 0.00314033
Heightened Def Con from 0.00314033 to 0.00314033
Heightened Def Con from 0.00314043 to 0.00314043
Heightened Def Con from 0.00314053 to 0.00314053
Heightened Def Con from 0.00314073 ++to 0.00314073
Heightened Def Con from 0.00314102 to 0.00314102
Heightened Def Con from 0.00314119 to 0.00314119
Heightened Def Con from 0.00314119 +to 0.00314119
Heightened Def Con from 0.00314129 to 0.00314129
Heightened Def Con from 0.00314129 to 0.00314129
Heightened Def Con from 0.00314133 to 0.00314133
Heightened Def Con from 0.00314141 to 0.00314141
Heightened Def Con from 0.00314182 ++to 0.00314182
Heightened Def Con from 0.00314182 to 0.00314182
Heightened Def Con from 0.00314229 to 0.00314229
Heightened Def Con from 0.00314229 to 0.00314229
Heightened Def Con from 0.00314273 to 0.00314273
Heightened Def Con from 0.00314289 to 0.00314289
Heightened Def Con from 0.00314293 to 0.00314293
Heightened Def Con from 0.00314319 to 0.00314319
Heightened Def Con from 0.00314319 to 0.00314319
Heightened Def Con from 0.00314341 to 0.00314341
Heightened Def Con from 0.00314341 to 0.00314341
Heightened Def Con from 0.00314362 to 0.00314362
Heightened Def Con from 0.00314369 +++++++to 0.00314369
Heightened Def Con from 0.00314369 ++++++to 0.00314369
Heightened Def Con from 0.00314393 to 0.00314393
Heightened Def Con from 0.00314393 to 0.00314393
Heightened Def Con from 0.00314402 ++to 0.00314402
Heightened Def Con from 0.00314409 to 0.00314409
Heightened Def Con from 0.00314413 +to 0.00314413
Heightened Def Con from 0.00314413 to 0.00314413
Heightened Def Con from 0.00314413 +++to 0.00314413
Heightened Def Con from 0.00314413 to 0.00314413
Heightened Def Con from 0.00314429 to 0.00314429
Heightened Def Con from 0.00314429 to 0.00314429
Heightened Def Con from 0.00314439 to 0.00314439
Heightened Def Con from 0.00314493 ++++to 0.00314493
Heightened Def Con from 0.003145 to 0.003145
Heightened Def Con from 0.00314522 to 0.00314522
Heightened Def Con from 0.00314522 to 0.00314522
Heightened Def Con from 0.00314582 to 0.00314582
Heightened Def Con from 0.00314593 to 0.00314593
Heightened Def Con from 0.00314593 to 0.00314593
Heightened Def Con from 0.00314593 to 0.00314593
Heightened Def Con from 0.00314593 to 0.00314593
Heightened Def Con from 0.00314593 to 0.00314593
Heightened Def Con from 0.00314593 to 0.00314593
Heightened Def Con from 0.00314593 to 0.00314593
Heightened Def Con from 0.00314633 to 0.00314633
Heightened Def Con from 0.00314633 to 0.00314633
Heightened Def Con from 0.00314653 to 0.00314653
Heightened Def Con from 0.00314673 to 0.00314673
Heightened Def Con from 0.00314673 to 0.00314673
Heightened Def Con from 0.00314689 to 0.00314689
Heightened Def Con from 0.00314722 to 0.00314722
Heightened Def Con from 0.00314742 to 0.00314742
Heightened Def Con from 0.00314742 to 0.00314742
Heightened Def Con from 0.00314742 to 0.00314742
Heightened Def Con from 0.00314761 +to 0.00314761
Heightened Def Con from 0.00314781 to 0.00314781
Heightened Def Con from 0.00314781 to 0.00314781
Heightened Def Con from 0.00314781 to 0.00314781
Heightened Def Con from 0.00314781 to 0.00314781
Heightened Def Con from 0.00314822 to 0.00314822
Heightened Def Con from 0.00314829 +++++++to 0.00314829
Heightened Def Con from 0.00314833 to 0.00314833
Heightened Def Con from 0.00314842 to 0.00314842
Heightened Def Con from 0.00314862 to 0.00314862
Heightened Def Con from 0.00314882 ++to 0.00314882
Heightened Def Con from 0.00314882 to 0.00314882
Heightened Def Con from 0.00314933 to 0.00314933
Heightened Def Con from 0.00314933 to 0.00314933
Heightened Def Con from 0.00314961 to 0.00314961
Heightened Def Con from 0.00315002 to 0.00315002
Heightened Def Con from 0.00315002 to 0.00315002
Heightened Def Con from 0.00315002 to 0.00315002
Heightened Def Con from 0.00315033 to 0.00315033
Heightened Def Con from 0.00315033 to 0.00315033
Heightened Def Con from 0.00315033 to 0.00315033
Heightened Def Con from 0.00315073 to 0.00315073
Heightened Def Con from 0.00315082 to 0.00315082
Heightened Def Con from 0.00315102 to 0.00315102
Heightened Def Con from 0.00315121 to 0.00315121
Heightened Def Con from 0.00315121 to 0.00315121
Heightened Def Con from 0.00315142 to 0.00315142
Heightened Def Con from 0.00315213 to 0.00315213
Heightened Def Con from 0.00315213 to 0.00315213
Heightened Def Con from 0.00315213 to 0.00315213
Heightened Def Con from 0.00315222 to 0.00315222
Heightened Def Con from 0.00315261 to 0.00315261
Heightened Def Con from 0.00315293 ++to 0.00315293
Heightened Def Con from 0.00315322 to 0.00315322
Heightened Def Con from 0.00315493 to 0.00315493
Heightened Def Con from 0.00315582 to 0.00315582
Heightened Def Con from 0.00315613 to 0.00315613
Heightened Def Con from 0.00315613 ++++to 0.00315613
Heightened Def Con from 0.00315613 to 0.00315613
Heightened Def Con from 0.00315633 +to 0.00315633
Heightened Def Con from 0.00315633 to 0.00315633
Heightened Def Con from 0.00315733 to 0.00315733
Heightened Def Con from 0.00315794 to 0.00315794
Heightened Def Con from 0.00315894 to 0.00315894
Heightened Def Con from 0.00315894 to 0.00315894
Heightened Def Con from 0.00315934 to 0.00315934
Heightened Def Con from 0.00316134 to 0.00316134
Heightened Def Con from 0.00316134 to 0.00316134
Heightened Def Con from 0.00316134 to 0.00316134
Heightened Def Con from 0.00316134 to 0.00316134
Heightened Def Con from 0.00316174 to 0.00316174
Heightened Def Con from 0.00316174 to 0.00316174
Heightened Def Con from 0.00316194 +to 0.00316194
Heightened Def Con from 0.00316194 ++to 0.00316194
Heightened Def Con from 0.00316194 to 0.00316194
Heightened Def Con from 0.00316229 ++to 0.00316229
Heightened Def Con from 0.00316229 to 0.00316229
Heightened Def Con from 0.00316229 to 0.00316229
Heightened Def Con from 0.00316234 to 0.00316234
Heightened Def Con from 0.00316234 to 0.00316234
Heightened Def Con from 0.00316274 to 0.00316274
Heightened Def Con from 0.00316314 to 0.00316314
Heightened Def Con from 0.00316314 ++++to 0.00316314
Heightened Def Con from 0.00316374 to 0.00316374
Heightened Def Con from 0.00316374 to 0.00316374
Heightened Def Con from 0.00316394 to 0.00316394
Heightened Def Con from 0.00316394 to 0.00316394
Heightened Def Con from 0.00316414 to 0.00316414
Heightened Def Con from 0.00316414 +++to 0.00316414
Heightened Def Con from 0.00316414 to 0.00316414
Heightened Def Con from 0.00316454 ++to 0.00316454
Heightened Def Con from 0.00316454 to 0.00316454
Heightened Def Con from 0.00316814 to 0.00316814
Heightened Def Con from 0.00316814 to 0.00316814
Heightened Def Con from 0.00316854 to 0.00316854
Heightened Def Con from 0.00316854 to 0.00316854
Heightened Def Con from 0.00316894 to 0.00316894
Heightened Def Con from 0.00316914 ++to 0.00316914
Heightened Def Con from 0.00316994 to 0.00316994
Heightened Def Con from 0.00317014 to 0.00317014
Heightened Def Con from 0.00317014 to 0.00317014
Heightened Def Con from 0.00317075 +++++to 0.00317075
Heightened Def Con from 0.00317155 ++++to 0.00317155
Heightened Def Con from 0.00317155 +++to 0.00317155
Heightened Def Con from 0.00317215 to 0.00317215
Heightened Def Con from 0.00317235 ++to 0.00317235
Heightened Def Con from 0.00317235 to 0.00317235
Heightened Def Con from 0.00317235 to 0.00317235
Heightened Def Con from 0.00317415 to 0.00317415
Heightened Def Con from 0.00317415 to 0.00317415
Heightened Def Con from 0.00317515 to 0.00317515
Heightened Def Con from 0.0031755 ++++++++to 0.0031755
Heightened Def Con from 0.0031755 +++++++++to 0.0031755
Heightened Def Con from 0.0031755 ++++++++to 0.0031755
Heightened Def Con from 0.0031755 +++++++to 0.0031755
Heightened Def Con from 0.00317555 to 0.00317555
Heightened Def Con from 0.00317555 +++to 0.00317555
Heightened Def Con from 0.00317555 to 0.00317555
Heightened Def Con from 0.00317555 to 0.00317555
Heightened Def Con from 0.00317555 to 0.00317555
Heightened Def Con from 0.0031759 to 0.0031759
Heightened Def Con from 0.00317675 to 0.00317675
Heightened Def Con from 0.00317695 to 0.00317695
Heightened Def Con from 0.0031775 to 0.0031775
Heightened Def Con from 0.0031775 to 0.0031775
Heightened Def Con from 0.0031775 to 0.0031775
Heightened Def Con from 0.00317755 to 0.00317755
Heightened Def Con from 0.00317755 ++to 0.00317755
Heightened Def Con from 0.00317755 to 0.00317755
Heightened Def Con from 0.00317755 to 0.00317755
Heightened Def Con from 0.0031777 ++to 0.0031777
Heightened Def Con from 0.0031777 to 0.0031777
Heightened Def Con from 0.0031777 to 0.0031777
Heightened Def Con from 0.00317775 to 0.00317775
Heightened Def Con from 0.00318035 to 0.00318035
Heightened Def Con from 0.00318035 to 0.00318035
Heightened Def Con from 0.00318075 