Circuit: * Z:\media\salim\home2\salim\KiCad\AM_FM_Transceiver\LTSpice\Test_AM_Tansceiver.asc

Direct Newton iteration failed to find .op point.  (Use ".option noopiter" to skip.)
Starting Gmin stepping
Gmin = 10
Gmin = 1.07374
vernier = 0.5
vernier = 0.25
vernier = 0.125
vernier = 0.0625
Gmin = 1.13883
vernier = 0.03125
vernier = 0.015625
vernier = 0.0208333
Gmin = 1.1053
vernier = 0.0277778
vernier = 0.0138889
vernier = 0.00694444
Gmin = 1.07695
vernier = 0.00925925
vernier = 0.0123457
Gmin = 1.05193
vernier = 0.00617283
vernier = 0.00308642
vernier = 0.00411522
Gmin = 1.04358
vernier = 0.00548696
Gmin = 1.03114
vernier = 0.00274348
vernier = 0.00137174
vernier = 0.00182899
Gmin = 1.02937
vernier = 0.00243865
vernier = 0.00325153
Gmin = 1.02338
vernier = 0.00162576
vernier = 0.000812882
vernier = 0.00108384
Gmin = 1.02234
vernier = 0.00144512
vernier = 0.00192683
Gmin = 1.01881
vernier = 0.000963415
vernier = 0.000481708
vernier = 0.000642277
Gmin = 1.01819
vernier = 0.000856369
vernier = 0.00114182
Gmin = 1.01611
vernier = 0.000570912
vernier = 0.000428184
Gmin = 1.01462
vernier = 0.000570912
vernier = 0.000761216
Gmin = 1.01315
vernier = 0.00101495
vernier = 0.000507477
Gmin = 0
Gmin stepping failed

Starting source stepping with srcstepmethod=0
Source Step = 3.0303%
Source Step = 33.3333%
Source Step = 63.6364%
Source Step = 93.9394%
Source stepping succeeded in finding the operating point.

Heightened Def Con from 4.78407e-08 ++++++to 4.78407e-08
Heightened Def Con from 4.78407e-08 to 4.78407e-08
Heightened Def Con from 1.10793e-07 to 1.10793e-07
Heightened Def Con from 1.10793e-07 to 1.10793e-07
Heightened Def Con from 2.29067e-07 to 2.29067e-07
Heightened Def Con from 2.46212e-07 +++to 2.46212e-07
Heightened Def Con from 2.46212e-07 to 2.46212e-07
Heightened Def Con from 3.10481e-07 to 3.10481e-07
Heightened Def Con from 3.38097e-07 ++++to 3.38097e-07
Heightened Def Con from 3.38097e-07 ++++to 3.38097e-07
Heightened Def Con from 4.46275e-07 +++++to 4.46275e-07
Heightened Def Con from 4.46275e-07 +to 4.46275e-07
Heightened Def Con from 6.29435e-07 to 6.29435e-07
Heightened Def Con from 6.29435e-07 to 6.29435e-07
Heightened Def Con from 6.46348e-07 +++to 6.46348e-07
Heightened Def Con from 7.37156e-07 to 7.37156e-07
Heightened Def Con from 1.13591e-06 +to 1.13591e-06
Heightened Def Con from 1.13591e-06 ++++to 1.13591e-06
Heightened Def Con from 1.17937e-06 to 1.17937e-06
Heightened Def Con from 1.17937e-06 +++to 1.17937e-06
Heightened Def Con from 1.17937e-06 +to 1.17937e-06
Heightened Def Con from 1.43071e-06 to 1.43071e-06
Heightened Def Con from 1.43071e-06 to 1.43071e-06
Heightened Def Con from 1.57274e-06 to 1.57274e-06
Heightened Def Con from 1.934e-06 ++to 1.934e-06
Heightened Def Con from 1.96943e-06 to 1.96943e-06
Heightened Def Con from 1.96943e-06 to 1.96943e-06
Heightened Def Con from 1.96943e-06 to 1.96943e-06
Heightened Def Con from 2.10465e-06 to 2.10465e-06
Heightened Def Con from 2.16736e-06 to 2.16736e-06
Heightened Def Con from 2.18112e-06 to 2.18112e-06
Heightened Def Con from 2.38129e-06 to 2.38129e-06
Heightened Def Con from 2.38129e-06 to 2.38129e-06
Heightened Def Con from 2.5329e-06 to 2.5329e-06
Heightened Def Con from 2.78158e-06 to 2.78158e-06
Heightened Def Con from 2.78158e-06 to 2.78158e-06
Heightened Def Con from 2.83314e-06 to 2.83314e-06
Heightened Def Con from 2.83314e-06 ++++to 2.83314e-06
Heightened Def Con from 2.83314e-06 to 2.83314e-06
Heightened Def Con from 2.98181e-06 to 2.98181e-06
Heightened Def Con from 2.98181e-06 to 2.98181e-06
Heightened Def Con from 3.03353e-06 to 3.03353e-06
Heightened Def Con from 3.03353e-06 to 3.03353e-06
Heightened Def Con from 3.13324e-06 to 3.13324e-06
Heightened Def Con from 3.15388e-06 to 3.15388e-06
Heightened Def Con from 3.15388e-06 +++to 3.15388e-06
Heightened Def Con from 3.18193e-06 +to 3.18193e-06
Heightened Def Con from 3.18193e-06 to 3.18193e-06
Heightened Def Con from 3.24709e-06 ++++++to 3.24709e-06
Heightened Def Con from 3.24709e-06 to 3.24709e-06
Heightened Def Con from 3.3008e-06 to 3.3008e-06
Heightened Def Con from 3.54351e-06 to 3.54351e-06
Heightened Def Con from 3.58216e-06 to 3.58216e-06
Heightened Def Con from 4.18237e-06 to 4.18237e-06
Heightened Def Con from 4.23607e-06 to 4.23607e-06
Heightened Def Con from 4.6371e-06 to 4.6371e-06
Heightened Def Con from 4.6371e-06 to 4.6371e-06
Heightened Def Con from 4.6371e-06 to 4.6371e-06
Heightened Def Con from 4.6371e-06 to 4.6371e-06
Heightened Def Con from 4.69604e-06 to 4.69604e-06
Heightened Def Con from 4.69604e-06 +++++++to 4.69604e-06
Heightened Def Con from 4.69604e-06 to 4.69604e-06
Heightened Def Con from 4.83772e-06 to 4.83772e-06
Heightened Def Con from 4.83772e-06 to 4.83772e-06
Heightened Def Con from 5.03811e-06 ++++to 5.03811e-06
Heightened Def Con from 5.03811e-06 to 5.03811e-06
Heightened Def Con from 5.64141e-06 to 5.64141e-06
Heightened Def Con from 5.84181e-06 to 5.84181e-06
Heightened Def Con from 5.84181e-06 to 5.84181e-06
Heightened Def Con from 5.84425e-06 +++to 5.84425e-06
Heightened Def Con from 6.78207e-06 to 6.78207e-06
Heightened Def Con from 6.78207e-06 to 6.78207e-06
Heightened Def Con from 6.78207e-06 to 6.78207e-06
Heightened Def Con from 6.98208e-06 to 6.98208e-06
Heightened Def Con from 7.0885e-06 to 7.0885e-06
Heightened Def Con from 7.0885e-06 to 7.0885e-06
Heightened Def Con from 7.18197e-06 to 7.18197e-06
Heightened Def Con from 7.28785e-06 to 7.28785e-06
Heightened Def Con from 7.28785e-06 to 7.28785e-06
Heightened Def Con from 7.28785e-06 ++++++to 7.28785e-06
Heightened Def Con from 8.48438e-06 ++to 8.48438e-06
Heightened Def Con from 8.48438e-06 to 8.48438e-06
Heightened Def Con from 8.58143e-06 to 8.58143e-06
Heightened Def Con from 8.58143e-06 to 8.58143e-06
Heightened Def Con from 8.58143e-06 to 8.58143e-06
Heightened Def Con from 8.68378e-06 +to 8.68378e-06
Heightened Def Con from 8.68378e-06 to 8.68378e-06
Heightened Def Con from 8.88346e-06 to 8.88346e-06
Heightened Def Con from 8.88346e-06 to 8.88346e-06
Heightened Def Con from 8.88346e-06 to 8.88346e-06
Heightened Def Con from 8.88346e-06 to 8.88346e-06
Heightened Def Con from 9.18113e-06 to 9.18113e-06
Heightened Def Con from 9.18113e-06 to 9.18113e-06
Heightened Def Con from 9.18113e-06 ++to 9.18113e-06
Heightened Def Con from 9.18113e-06 to 9.18113e-06
Heightened Def Con from 9.38104e-06 to 9.38104e-06
Heightened Def Con from 1.01806e-05 to 1.01806e-05
Heightened Def Con from 1.04792e-05 ++to 1.04792e-05
Heightened Def Con from 1.04792e-05 to 1.04792e-05
Heightened Def Con from 1.08785e-05 to 1.08785e-05
Heightened Def Con from 1.08785e-05 ++++to 1.08785e-05
Heightened Def Con from 1.08785e-05 to 1.08785e-05
Heightened Def Con from 1.15798e-05 to 1.15798e-05
Heightened Def Con from 1.17797e-05 to 1.17797e-05
Heightened Def Con from 1.20759e-05 to 1.20759e-05
Heightened Def Con from 1.20759e-05 to 1.20759e-05
Heightened Def Con from 1.21794e-05 to 1.21794e-05
Heightened Def Con from 1.21794e-05 to 1.21794e-05
Heightened Def Con from 1.21794e-05 to 1.21794e-05
Heightened Def Con from 1.21794e-05 to 1.21794e-05
Heightened Def Con from 1.21794e-05 +++++to 1.21794e-05
Heightened Def Con from 1.2779e-05 to 1.2779e-05
Heightened Def Con from 1.29789e-05 to 1.29789e-05
Heightened Def Con from 1.29789e-05 to 1.29789e-05
Heightened Def Con from 1.33786e-05 to 1.33786e-05
Heightened Def Con from 1.33786e-05 ++++to 1.33786e-05
Heightened Def Con from 1.33786e-05 to 1.33786e-05
Heightened Def Con from 1.35785e-05 to 1.35785e-05
Heightened Def Con from 1.36738e-05 +++to 1.36738e-05
Heightened Def Con from 1.36738e-05 to 1.36738e-05
Heightened Def Con from 1.36738e-05 to 1.36738e-05
Heightened Def Con from 1.40737e-05 +++to 1.40737e-05
Heightened Def Con from 1.40737e-05 to 1.40737e-05
Heightened Def Con from 1.54741e-05 to 1.54741e-05
Heightened Def Con from 1.59767e-05 to 1.59767e-05
Heightened Def Con from 1.73755e-05 to 1.73755e-05
Heightened Def Con from 1.73755e-05 to 1.73755e-05
Heightened Def Con from 1.74751e-05 to 1.74751e-05
Heightened Def Con from 1.75753e-05 to 1.75753e-05
Heightened Def Con from 1.76752e-05 to 1.76752e-05
Heightened Def Con from 1.76752e-05 to 1.76752e-05
Heightened Def Con from 1.89742e-05 +to 1.89742e-05
Heightened Def Con from 1.89742e-05 to 1.89742e-05
Heightened Def Con from 1.90757e-05 to 1.90757e-05
Heightened Def Con from 1.92758e-05 to 1.92758e-05
Heightened Def Con from 1.92758e-05 ++++to 1.92758e-05
Heightened Def Con from 2.03729e-05 to 2.03729e-05
Heightened Def Con from 2.03729e-05 to 2.03729e-05
Heightened Def Con from 2.04763e-05 to 2.04763e-05
Heightened Def Con from 2.14767e-05 to 2.14767e-05
Heightened Def Con from 2.14767e-05 to 2.14767e-05
Heightened Def Con from 2.30775e-05 ++++to 2.30775e-05
Heightened Def Con from 2.33697e-05 to 2.33697e-05
Heightened Def Con from 2.33697e-05 to 2.33697e-05
Heightened Def Con from 2.37693e-05 to 2.37693e-05
Heightened Def Con from 2.37693e-05 to 2.37693e-05
Heightened Def Con from 2.37693e-05 to 2.37693e-05
Heightened Def Con from 2.37693e-05 ++++to 2.37693e-05
Heightened Def Con from 2.37693e-05 to 2.37693e-05
Heightened Def Con from 2.38778e-05 to 2.38778e-05
Heightened Def Con from 2.38778e-05 to 2.38778e-05
Heightened Def Con from 2.42779e-05 to 2.42779e-05
Heightened Def Con from 2.43686e-05 ++to 2.43686e-05
Heightened Def Con from 2.43686e-05 to 2.43686e-05
Heightened Def Con from 2.47681e-05 to 2.47681e-05
Heightened Def Con from 2.50783e-05 to 2.50783e-05
Heightened Def Con from 2.55672e-05 ++to 2.55672e-05
Heightened Def Con from 2.55672e-05 ++++to 2.55672e-05
Heightened Def Con from 2.55672e-05 +++++to 2.55672e-05
Heightened Def Con from 2.61666e-05 to 2.61666e-05
Heightened Def Con from 2.62787e-05 +++to 2.62787e-05
Heightened Def Con from 2.62787e-05 to 2.62787e-05
Heightened Def Con from 2.67659e-05 to 2.67659e-05
Heightened Def Con from 2.67659e-05 to 2.67659e-05
Heightened Def Con from 2.67659e-05 to 2.67659e-05
Heightened Def Con from 2.70791e-05 to 2.70791e-05
Heightened Def Con from 2.70791e-05 to 2.70791e-05
Heightened Def Con from 2.74791e-05 to 2.74791e-05
Heightened Def Con from 2.79648e-05 to 2.79648e-05
Heightened Def Con from 2.79648e-05 to 2.79648e-05
Heightened Def Con from 2.79648e-05 to 2.79648e-05
Heightened Def Con from 2.79648e-05 to 2.79648e-05
Heightened Def Con from 2.86796e-05 to 2.86796e-05
Heightened Def Con from 2.86796e-05 ++++to 2.86796e-05
Heightened Def Con from 2.86796e-05 to 2.86796e-05
Heightened Def Con from 2.92798e-05 to 2.92798e-05
Heightened Def Con from 2.98799e-05 to 2.98799e-05
Heightened Def Con from 2.98799e-05 to 2.98799e-05
Heightened Def Con from 3.008e-05 +++to 3.008e-05
Heightened Def Con from 3.15622e-05 to 3.15622e-05
Heightened Def Con from 3.1762e-05 +to 3.1762e-05
Heightened Def Con from 3.1762e-05 to 3.1762e-05
Heightened Def Con from 3.26806e-05 to 3.26806e-05
Heightened Def Con from 3.36808e-05 to 3.36808e-05
Heightened Def Con from 3.36808e-05 to 3.36808e-05
Heightened Def Con from 3.38809e-05 +to 3.38809e-05
Heightened Def Con from 3.38809e-05 to 3.38809e-05
Heightened Def Con from 3.40809e-05 to 3.40809e-05
Heightened Def Con from 3.4881e-05 to 3.4881e-05
Heightened Def Con from 3.4881e-05 to 3.4881e-05
Heightened Def Con from 3.49603e-05 to 3.49603e-05
Heightened Def Con from 3.59598e-05 to 3.59598e-05
Heightened Def Con from 3.63596e-05 to 3.63596e-05
Heightened Def Con from 3.66814e-05 to 3.66814e-05
Heightened Def Con from 3.66814e-05 +to 3.66814e-05
Heightened Def Con from 3.66814e-05 to 3.66814e-05
Heightened Def Con from 3.67595e-05 to 3.67595e-05
Heightened Def Con from 3.69594e-05 ++++to 3.69594e-05
Heightened Def Con from 3.72815e-05 ++++to 3.72815e-05
Heightened Def Con from 3.72815e-05 to 3.72815e-05
Heightened Def Con from 3.81589e-05 to 3.81589e-05
Heightened Def Con from 4.10821e-05 to 4.10821e-05
Heightened Def Con from 4.10821e-05 to 4.10821e-05
Heightened Def Con from 4.14822e-05 to 4.14822e-05
Heightened Def Con from 4.16822e-05 ++++to 4.16822e-05
Heightened Def Con from 4.16822e-05 to 4.16822e-05
Heightened Def Con from 4.22822e-05 to 4.22822e-05
Heightened Def Con from 4.23575e-05 to 4.23575e-05
Heightened Def Con from 4.27574e-05 to 4.27574e-05
Heightened Def Con from 4.27574e-05 to 4.27574e-05
Heightened Def Con from 4.28823e-05 to 4.28823e-05
Heightened Def Con from 4.28823e-05 to 4.28823e-05
Heightened Def Con from 4.29573e-05 to 4.29573e-05
Heightened Def Con from 4.35572e-05 +++++to 4.35572e-05
Heightened Def Con from 4.43569e-05 +++to 4.43569e-05
Heightened Def Con from 4.43569e-05 to 4.43569e-05
Heightened Def Con from 4.43569e-05 to 4.43569e-05
Heightened Def Con from 4.45569e-05 to 4.45569e-05
Heightened Def Con from 4.50823e-05 to 4.50823e-05
Heightened Def Con from 4.50823e-05 to 4.50823e-05
Heightened Def Con from 4.50823e-05 ++++to 4.50823e-05
Heightened Def Con from 4.50823e-05 to 4.50823e-05
Heightened Def Con from 4.51568e-05 to 4.51568e-05
Heightened Def Con from 4.51568e-05 +++to 4.51568e-05
Heightened Def Con from 4.51568e-05 to 4.51568e-05
Heightened Def Con from 4.60819e-05 to 4.60819e-05
Heightened Def Con from 4.60819e-05 ++++to 4.60819e-05
Heightened Def Con from 4.60819e-05 to 4.60819e-05
Heightened Def Con from 4.64816e-05 to 4.64816e-05
Heightened Def Con from 4.65564e-05 to 4.65564e-05
Heightened Def Con from 4.66813e-05 to 4.66813e-05
Heightened Def Con from 4.74802e-05 to 4.74802e-05
Heightened Def Con from 4.78795e-05 +to 4.78795e-05
Heightened Def Con from 4.78795e-05 to 4.78795e-05
Heightened Def Con from 4.78795e-05 to 4.78795e-05
Heightened Def Con from 4.80792e-05 ++++to 4.80792e-05
Heightened Def Con from 4.8156e-05 ++++to 4.8156e-05
Heightened Def Con from 4.8156e-05 +++to 4.8156e-05
Heightened Def Con from 4.85559e-05 to 4.85559e-05
Heightened Def Con from 4.89558e-05 to 4.89558e-05
Heightened Def Con from 4.9878e-05 to 4.9878e-05
Heightened Def Con from 4.9878e-05 to 4.9878e-05
Heightened Def Con from 4.9878e-05 to 4.9878e-05
Heightened Def Con from 5.04785e-05 to 5.04785e-05
Heightened Def Con from 5.04785e-05 ++to 5.04785e-05
Heightened Def Con from 5.04785e-05 +++++++to 5.04785e-05
Heightened Def Con from 5.04785e-05 to 5.04785e-05
Heightened Def Con from 5.16798e-05 ++++++to 5.16798e-05
Heightened Def Con from 5.16798e-05 +to 5.16798e-05
Heightened Def Con from 5.16798e-05 to 5.16798e-05
Heightened Def Con from 5.188e-05 to 5.188e-05
Heightened Def Con from 5.188e-05 to 5.188e-05
Heightened Def Con from 5.19547e-05 to 5.19547e-05
Heightened Def Con from 5.19547e-05 to 5.19547e-05
Heightened Def Con from 5.19547e-05 to 5.19547e-05
Heightened Def Con from 5.19547e-05 to 5.19547e-05
Heightened Def Con from 5.25544e-05 ++++to 5.25544e-05
Heightened Def Con from 5.29542e-05 to 5.29542e-05
Heightened Def Con from 5.29542e-05 to 5.29542e-05
Heightened Def Con from 5.29542e-05 ++to 5.29542e-05
Heightened Def Con from 5.30818e-05 to 5.30818e-05
Heightened Def Con from 5.3354e-05 to 5.3354e-05
Heightened Def Con from 5.34825e-05 to 5.34825e-05
Heightened Def Con from 5.3554e-05 to 5.3554e-05
Heightened Def Con from 5.3554e-05 to 5.3554e-05
Heightened Def Con from 5.39538e-05 to 5.39538e-05
Heightened Def Con from 5.4112e-05 ++to 5.4112e-05
Heightened Def Con from 5.41538e-05 to 5.41538e-05
Heightened Def Con from 5.43101e-05 to 5.43101e-05
Heightened Def Con from 5.43101e-05 to 5.43101e-05
Heightened Def Con from 5.43101e-05 to 5.43101e-05
Heightened Def Con from 5.43132e-05 ++to 5.43132e-05
Heightened Def Con from 5.43132e-05 to 5.43132e-05
Heightened Def Con from 5.49537e-05 to 5.49537e-05
Heightened Def Con from 5.54859e-05 ++++++to 5.54859e-05
Heightened Def Con from 5.54859e-05 ++++++to 5.54859e-05
Heightened Def Con from 5.55538e-05 +++++to 5.55538e-05
Heightened Def Con from 5.55538e-05 to 5.55538e-05
Heightened Def Con from 5.57188e-05 to 5.57188e-05
Heightened Def Con from 5.57539e-05 to 5.57539e-05
Heightened Def Con from 5.57539e-05 to 5.57539e-05
Heightened Def Con from 5.59111e-05 to 5.59111e-05
Heightened Def Con from 5.59111e-05 to 5.59111e-05
Heightened Def Con from 5.59539e-05 to 5.59539e-05
Heightened Def Con from 5.59539e-05 to 5.59539e-05
Heightened Def Con from 5.59539e-05 to 5.59539e-05
Heightened Def Con from 5.61114e-05 to 5.61114e-05
Heightened Def Con from 5.61114e-05 +++++to 5.61114e-05
Heightened Def Con from 5.61114e-05 +to 5.61114e-05
Heightened Def Con from 5.61114e-05 to 5.61114e-05
Heightened Def Con from 5.63209e-05 ++++++to 5.63209e-05
Heightened Def Con from 5.63542e-05 to 5.63542e-05
Heightened Def Con from 5.6512e-05 to 5.6512e-05
Heightened Def Con from 5.6512e-05 to 5.6512e-05
Heightened Def Con from 5.68884e-05 to 5.68884e-05
Heightened Def Con from 5.69544e-05 +to 5.69544e-05
Heightened Def Con from 5.69544e-05 +++++to 5.69544e-05
Heightened Def Con from 5.71128e-05 to 5.71128e-05
Heightened Def Con from 5.769e-05 to 5.769e-05
Heightened Def Con from 5.769e-05 to 5.769e-05
Heightened Def Con from 5.769e-05 +++to 5.769e-05
Heightened Def Con from 5.769e-05 to 5.769e-05
Heightened Def Con from 5.77246e-05 +++++to 5.77246e-05
Heightened Def Con from 5.77246e-05 to 5.77246e-05
Heightened Def Con from 5.82909e-05 ++to 5.82909e-05
Heightened Def Con from 5.82909e-05 to 5.82909e-05
Heightened Def Con from 5.85267e-05 to 5.85267e-05
Heightened Def Con from 5.85267e-05 to 5.85267e-05
Heightened Def Con from 5.85267e-05 +++++to 5.85267e-05
Heightened Def Con from 5.8892e-05 to 5.8892e-05
Heightened Def Con from 5.89157e-05 ++to 5.89157e-05
Heightened Def Con from 5.89157e-05 to 5.89157e-05
Heightened Def Con from 5.90924e-05 +++++++to 5.90924e-05
Heightened Def Con from 5.90924e-05 to 5.90924e-05
Heightened Def Con from 5.90924e-05 to 5.90924e-05
Heightened Def Con from 5.91285e-05 to 5.91285e-05
Heightened Def Con from 5.91561e-05 to 5.91561e-05
Heightened Def Con from 5.91561e-05 to 5.91561e-05
Heightened Def Con from 5.92927e-05 to 5.92927e-05
Heightened Def Con from 5.93288e-05 to 5.93288e-05
Heightened Def Con from 5.93288e-05 to 5.93288e-05
Heightened Def Con from 5.93562e-05 +to 5.93562e-05
Heightened Def Con from 5.93562e-05 +++++to 5.93562e-05
Heightened Def Con from 5.95296e-05 to 5.95296e-05
Heightened Def Con from 5.95296e-05 to 5.95296e-05
Heightened Def Con from 5.97566e-05 to 5.97566e-05
Heightened Def Con from 6.04948e-05 to 6.04948e-05
Heightened Def Con from 6.04948e-05 to 6.04948e-05
Heightened Def Con from 6.05183e-05 to 6.05183e-05
Heightened Def Con from 6.05183e-05 to 6.05183e-05
Heightened Def Con from 6.08955e-05 to 6.08955e-05
Heightened Def Con from 6.10959e-05 to 6.10959e-05
Heightened Def Con from 6.13197e-05 to 6.13197e-05
Heightened Def Con from 6.13197e-05 to 6.13197e-05
Heightened Def Con from 6.15583e-05 to 6.15583e-05
Heightened Def Con from 6.15583e-05 to 6.15583e-05
Heightened Def Con from 6.15583e-05 +++++to 6.15583e-05
Heightened Def Con from 6.15583e-05 to 6.15583e-05
Heightened Def Con from 6.17346e-05 +++++to 6.17346e-05
Heightened Def Con from 6.17346e-05 +to 6.17346e-05
Heightened Def Con from 6.17346e-05 ++++++to 6.17346e-05
Heightened Def Con from 6.17585e-05 to 6.17585e-05
Heightened Def Con from 6.17585e-05 +++++to 6.17585e-05
Heightened Def Con from 6.22979e-05 +++++to 6.22979e-05
Heightened Def Con from 6.22979e-05 +++to 6.22979e-05
Heightened Def Con from 6.2359e-05 to 6.2359e-05
Heightened Def Con from 6.27594e-05 +++++to 6.27594e-05
Heightened Def Con from 6.28988e-05 +++++++++to 6.28988e-05
Heightened Def Con from 6.29373e-05 to 6.29373e-05
Heightened Def Con from 6.29373e-05 to 6.29373e-05
Heightened Def Con from 6.31598e-05 to 6.31598e-05
Heightened Def Con from 6.31598e-05 to 6.31598e-05
Heightened Def Con from 6.31598e-05 to 6.31598e-05
Heightened Def Con from 6.31598e-05 to 6.31598e-05
Heightened Def Con from 6.34997e-05 to 6.34997e-05
Heightened Def Con from 6.37233e-05 to 6.37233e-05
Heightened Def Con from 6.37233e-05 to 6.37233e-05
Heightened Def Con from 6.37233e-05 to 6.37233e-05
Heightened Def Con from 6.37392e-05 to 6.37392e-05
Heightened Def Con from 6.43406e-05 to 6.43406e-05
Heightened Def Con from 6.47248e-05 ++++++to 6.47248e-05
Heightened Def Con from 6.51254e-05 to 6.51254e-05
Heightened Def Con from 6.55431e-05 to 6.55431e-05
Heightened Def Con from 6.55431e-05 to 6.55431e-05
Heightened Def Con from 6.55431e-05 to 6.55431e-05
Heightened Def Con from 6.59032e-05 to 6.59032e-05
Heightened Def Con from 6.59032e-05 to 6.59032e-05
Heightened Def Con from 6.59438e-05 to 6.59438e-05
Heightened Def Con from 6.59438e-05 ++to 6.59438e-05
Heightened Def Con from 6.59438e-05 +++to 6.59438e-05
Heightened Def Con from 6.59438e-05 to 6.59438e-05
Heightened Def Con from 6.61446e-05 ++++to 6.61446e-05
Heightened Def Con from 6.61446e-05 to 6.61446e-05
Heightened Def Con from 6.63038e-05 to 6.63038e-05
Heightened Def Con from 6.67456e-05 to 6.67456e-05
Heightened Def Con from 6.67456e-05 to 6.67456e-05
Heightened Def Con from 6.71048e-05 to 6.71048e-05
Heightened Def Con from 6.71048e-05 to 6.71048e-05
Heightened Def Con from 6.71048e-05 +++to 6.71048e-05
Heightened Def Con from 6.71048e-05 to 6.71048e-05
Heightened Def Con from 6.73471e-05 to 6.73471e-05
Heightened Def Con from 6.73471e-05 ++to 6.73471e-05
Heightened Def Con from 6.77483e-05 to 6.77483e-05
Heightened Def Con from 6.77624e-05 to 6.77624e-05
Heightened Def Con from 6.78415e-05 ++++to 6.78415e-05
Heightened Def Con from 6.81294e-05 to 6.81294e-05
Heightened Def Con from 6.81294e-05 to 6.81294e-05
Heightened Def Con from 6.82419e-05 to 6.82419e-05
Heightened Def Con from 6.82419e-05 to 6.82419e-05
Heightened Def Con from 6.83297e-05 to 6.83297e-05
Heightened Def Con from 6.83297e-05 to 6.83297e-05
Heightened Def Con from 6.85299e-05 to 6.85299e-05
Heightened Def Con from 6.85299e-05 to 6.85299e-05
Heightened Def Con from 6.85299e-05 to 6.85299e-05
Heightened Def Con from 6.85622e-05 to 6.85622e-05
Heightened Def Con from 6.89072e-05 to 6.89072e-05
Heightened Def Con from 6.89072e-05 to 6.89072e-05
Heightened Def Con from 6.91307e-05 to 6.91307e-05
Heightened Def Con from 6.9152e-05 ++to 6.9152e-05
Heightened Def Con from 6.92425e-05 to 6.92425e-05
Heightened Def Con from 6.92425e-05 ++++to 6.92425e-05
Heightened Def Con from 6.94362e-05 to 6.94362e-05
Heightened Def Con from 6.96427e-05 to 6.96427e-05
Heightened Def Con from 7.01086e-05 to 7.01086e-05
Heightened Def Con from 7.05324e-05 to 7.05324e-05
Heightened Def Con from 7.07093e-05 to 7.07093e-05
Heightened Def Con from 7.07093e-05 to 7.07093e-05
Heightened Def Con from 7.10343e-05 to 7.10343e-05
Heightened Def Con from 7.10343e-05 to 7.10343e-05
Heightened Def Con from 7.12341e-05 to 7.12341e-05
Heightened Def Con from 7.1243e-05 to 7.1243e-05
Heightened Def Con from 7.1243e-05 to 7.1243e-05
Heightened Def Con from 7.13099e-05 +++++++to 7.13099e-05
Heightened Def Con from 7.14339e-05 to 7.14339e-05
Heightened Def Con from 7.14431e-05 to 7.14431e-05
Heightened Def Con from 7.1643e-05 ++to 7.1643e-05
Heightened Def Con from 7.1643e-05 +++to 7.1643e-05
Heightened Def Con from 7.1643e-05 +++++to 7.1643e-05
Heightened Def Con from 7.17337e-05 to 7.17337e-05
Heightened Def Con from 7.28431e-05 to 7.28431e-05
Heightened Def Con from 7.28431e-05 to 7.28431e-05
Heightened Def Con from 7.28431e-05 +++to 7.28431e-05
Heightened Def Con from 7.28431e-05 to 7.28431e-05
Heightened Def Con from 7.30432e-05 to 7.30432e-05
Heightened Def Con from 7.32321e-05 to 7.32321e-05
Heightened Def Con from 7.3312e-05 to 7.3312e-05
Heightened Def Con from 7.37362e-05 to 7.37362e-05
Heightened Def Con from 7.40314e-05 to 7.40314e-05
Heightened Def Con from 7.40314e-05 to 7.40314e-05
Heightened Def Con from 7.40314e-05 +++to 7.40314e-05
Heightened Def Con from 7.40314e-05 to 7.40314e-05
Heightened Def Con from 7.41128e-05 to 7.41128e-05
Heightened Def Con from 7.41128e-05 to 7.41128e-05
Heightened Def Con from 7.41128e-05 +to 7.41128e-05
Heightened Def Con from 7.41128e-05 to 7.41128e-05
Heightened Def Con from 7.41367e-05 to 7.41367e-05
Heightened Def Con from 7.42431e-05 ++++to 7.42431e-05
Heightened Def Con from 7.42431e-05 to 7.42431e-05
Heightened Def Con from 7.44432e-05 to 7.44432e-05
Heightened Def Con from 7.44432e-05 to 7.44432e-05
Heightened Def Con from 7.47133e-05 to 7.47133e-05
Heightened Def Con from 7.47133e-05 to 7.47133e-05
Heightened Def Con from 7.47133e-05 to 7.47133e-05
Heightened Def Con from 7.48432e-05 to 7.48432e-05
Heightened Def Con from 7.51377e-05 ++++to 7.51377e-05
Heightened Def Con from 7.51377e-05 to 7.51377e-05
Heightened Def Con from 7.51377e-05 to 7.51377e-05
Heightened Def Con from 7.51377e-05 ++++to 7.51377e-05
Heightened Def Con from 7.52431e-05 to 7.52431e-05
Heightened Def Con from 7.53381e-05 to 7.53381e-05
Heightened Def Con from 7.55383e-05 to 7.55383e-05
Heightened Def Con from 7.60296e-05 to 7.60296e-05
Heightened Def Con from 7.60296e-05 to 7.60296e-05
Heightened Def Con from 7.60296e-05 to 7.60296e-05
Heightened Def Con from 7.60296e-05 to 7.60296e-05
Heightened Def Con from 7.60296e-05 to 7.60296e-05
Heightened Def Con from 7.63146e-05 to 7.63146e-05
Heightened Def Con from 7.63393e-05 to 7.63393e-05
Heightened Def Con from 7.6429e-05 to 7.6429e-05
Heightened Def Con from 7.65397e-05 to 7.65397e-05
Heightened Def Con from 7.72281e-05 to 7.72281e-05
Heightened Def Con from 7.72427e-05 +++to 7.72427e-05
Heightened Def Con from 7.72427e-05 to 7.72427e-05
Heightened Def Con from 7.72427e-05 to 7.72427e-05
Heightened Def Con from 7.72427e-05 to 7.72427e-05
Heightened Def Con from 7.72427e-05 to 7.72427e-05
Heightened Def Con from 7.7341e-05 to 7.7341e-05
Heightened Def Con from 7.75156e-05 to 7.75156e-05
Heightened Def Con from 7.76276e-05 +++to 7.76276e-05
Heightened Def Con from 7.76276e-05 to 7.76276e-05
Heightened Def Con from 7.76427e-05 to 7.76427e-05
Heightened Def Con from 7.76427e-05 to 7.76427e-05
Heightened Def Con from 7.80271e-05 to 7.80271e-05
Heightened Def Con from 7.82427e-05 to 7.82427e-05
Heightened Def Con from 7.82427e-05 to 7.82427e-05
Heightened Def Con from 7.88261e-05 to 7.88261e-05
Heightened Def Con from 7.88426e-05 to 7.88426e-05
Heightened Def Con from 7.88426e-05 +++++to 7.88426e-05
Heightened Def Con from 7.91166e-05 to 7.91166e-05
Heightened Def Con from 7.91166e-05 to 7.91166e-05
Heightened Def Con from 7.92426e-05 to 7.92426e-05
Heightened Def Con from 7.92426e-05 to 7.92426e-05
Heightened Def Con from 7.93442e-05 to 7.93442e-05
Heightened Def Con from 7.96255e-05 to 7.96255e-05
Heightened Def Con from 7.96255e-05 to 7.96255e-05
Heightened Def Con from 7.96427e-05 to 7.96427e-05
Heightened Def Con from 7.98427e-05 to 7.98427e-05
Heightened Def Con from 7.98427e-05 to 7.98427e-05
Heightened Def Con from 7.99449e-05 to 7.99449e-05
Heightened Def Con from 8.05456e-05 to 8.05456e-05
Heightened Def Con from 8.05456e-05 to 8.05456e-05
Heightened Def Con from 8.07177e-05 ++to 8.07177e-05
Heightened Def Con from 8.07177e-05 to 8.07177e-05
Heightened Def Con from 8.07455e-05 to 8.07455e-05
Heightened Def Con from 8.07455e-05 to 8.07455e-05
Heightened Def Con from 8.0825e-05 to 8.0825e-05
Heightened Def Con from 8.0825e-05 to 8.0825e-05
Heightened Def Con from 8.1118e-05 ++to 8.1118e-05
Heightened Def Con from 8.1118e-05 to 8.1118e-05
Heightened Def Con from 8.1118e-05 ++++++to 8.1118e-05
Heightened Def Con from 8.1118e-05 +++++to 8.1118e-05
Heightened Def Con from 8.11461e-05 ++++to 8.11461e-05
Heightened Def Con from 8.17463e-05 to 8.17463e-05
Heightened Def Con from 8.17463e-05 to 8.17463e-05
Heightened Def Con from 8.18249e-05 to 8.18249e-05
Heightened Def Con from 8.18249e-05 +++++to 8.18249e-05
Heightened Def Con from 8.18249e-05 ++++to 8.18249e-05
Heightened Def Con from 8.18249e-05 to 8.18249e-05
Heightened Def Con from 8.20249e-05 to 8.20249e-05
Heightened Def Con from 8.20249e-05 to 8.20249e-05
Heightened Def Con from 8.23463e-05 to 8.23463e-05
Heightened Def Con from 8.25465e-05 to 8.25465e-05
Heightened Def Con from 8.25465e-05 to 8.25465e-05
Heightened Def Con from 8.25465e-05 to 8.25465e-05
Heightened Def Con from 8.25465e-05 to 8.25465e-05
Heightened Def Con from 8.25465e-05 to 8.25465e-05
Heightened Def Con from 8.25465e-05 +to 8.25465e-05
Heightened Def Con from 8.32441e-05 to 8.32441e-05
Heightened Def Con from 8.32441e-05 to 8.32441e-05
Heightened Def Con from 8.3319e-05 to 8.3319e-05
Heightened Def Con from 8.36443e-05 to 8.36443e-05
Heightened Def Con from 8.36443e-05 to 8.36443e-05
Heightened Def Con from 8.39193e-05 to 8.39193e-05
Heightened Def Con from 8.3947e-05 +++to 8.3947e-05
Heightened Def Con from 8.40446e-05 to 8.40446e-05
Heightened Def Con from 8.43194e-05 to 8.43194e-05
Heightened Def Con from 8.43194e-05 ++++++to 8.43194e-05
Heightened Def Con from 8.43194e-05 to 8.43194e-05
Heightened Def Con from 8.44448e-05 +to 8.44448e-05
Heightened Def Con from 8.44448e-05 to 8.44448e-05
Heightened Def Con from 8.45196e-05 to 8.45196e-05
Heightened Def Con from 8.45196e-05 to 8.45196e-05
Heightened Def Con from 8.46449e-05 to 8.46449e-05
Heightened Def Con from 8.49471e-05 to 8.49471e-05
Heightened Def Con from 8.51198e-05 to 8.51198e-05
Heightened Def Con from 8.51198e-05 ++++++to 8.51198e-05
Heightened Def Con from 8.51198e-05 to 8.51198e-05
Heightened Def Con from 8.53199e-05 to 8.53199e-05
Heightened Def Con from 8.53199e-05 +++to 8.53199e-05
Heightened Def Con from 8.59475e-05 to 8.59475e-05
Heightened Def Con from 8.59475e-05 to 8.59475e-05
Heightened Def Con from 8.63475e-05 to 8.63475e-05
Heightened Def Con from 8.64262e-05 to 8.64262e-05
Heightened Def Con from 8.65474e-05 to 8.65474e-05
Heightened Def Con from 8.65474e-05 to 8.65474e-05
Heightened Def Con from 8.65474e-05 ++++to 8.65474e-05
Heightened Def Con from 8.66264e-05 ++++to 8.66264e-05
Heightened Def Con from 8.66264e-05 to 8.66264e-05
Heightened Def Con from 8.66462e-05 to 8.66462e-05
Heightened Def Con from 8.66462e-05 to 8.66462e-05
Heightened Def Con from 8.66462e-05 to 8.66462e-05
Heightened Def Con from 8.68463e-05 to 8.68463e-05
Heightened Def Con from 8.68463e-05 to 8.68463e-05
Heightened Def Con from 8.70464e-05 to 8.70464e-05
Heightened Def Con from 8.73477e-05 to 8.73477e-05
Heightened Def Con from 8.73477e-05 to 8.73477e-05
Heightened Def Con from 8.73477e-05 to 8.73477e-05
Heightened Def Con from 8.73477e-05 to 8.73477e-05
Heightened Def Con from 8.73477e-05 to 8.73477e-05
Heightened Def Con from 8.73477e-05 to 8.73477e-05
Heightened Def Con from 8.75478e-05 to 8.75478e-05
Heightened Def Con from 8.76468e-05 to 8.76468e-05
Heightened Def Con from 8.79478e-05 ++++to 8.79478e-05
Heightened Def Con from 8.92275e-05 to 8.92275e-05
Heightened Def Con from 8.93211e-05 to 8.93211e-05
Heightened Def Con from 8.93211e-05 to 8.93211e-05
Heightened Def Con from 8.94277e-05 to 8.94277e-05
Heightened Def Con from 8.94277e-05 to 8.94277e-05
Heightened Def Con from 8.94277e-05 to 8.94277e-05
Heightened Def Con from 9.02282e-05 +++to 9.02282e-05
Heightened Def Con from 9.02282e-05 to 9.02282e-05
Heightened Def Con from 9.02486e-05 to 9.02486e-05
Heightened Def Con from 9.05801e-05 to 9.05801e-05
Heightened Def Con from 9.05852e-05 to 9.05852e-05
Heightened Def Con from 9.05852e-05 +++to 9.05852e-05
Heightened Def Con from 9.06489e-05 to 9.06489e-05
Heightened Def Con from 9.06489e-05 to 9.06489e-05
Heightened Def Con from 9.09484e-05 ++++to 9.09484e-05
Heightened Def Con from 9.09859e-05 to 9.09859e-05
Heightened Def Con from 9.10286e-05 to 9.10286e-05
Heightened Def Con from 9.10286e-05 to 9.10286e-05
Heightened Def Con from 9.11864e-05 to 9.11864e-05
Heightened Def Con from 9.11864e-05 to 9.11864e-05
Heightened Def Con from 9.11864e-05 +++to 9.11864e-05
Heightened Def Con from 9.11864e-05 +++to 9.11864e-05
Heightened Def Con from 9.12287e-05 to 9.12287e-05
Heightened Def Con from 9.13867e-05 to 9.13867e-05
Heightened Def Con from 9.13867e-05 to 9.13867e-05
Heightened Def Con from 9.13867e-05 to 9.13867e-05
Heightened Def Con from 9.14495e-05 to 9.14495e-05
Heightened Def Con from 9.15793e-05 +to 9.15793e-05
Heightened Def Con from 9.15869e-05 +to 9.15869e-05
Heightened Def Con from 9.19216e-05 to 9.19216e-05
Heightened Def Con from 9.19875e-05 to 9.19875e-05
Heightened Def Con from 9.2149e-05 to 9.2149e-05
Heightened Def Con from 9.23217e-05 to 9.23217e-05
Heightened Def Con from 9.25779e-05 to 9.25779e-05
Heightened Def Con from 9.25886e-05 to 9.25886e-05
Heightened Def Con from 9.27887e-05 to 9.27887e-05
Heightened Def Con from 9.27887e-05 to 9.27887e-05
Heightened Def Con from 9.27887e-05 to 9.27887e-05
Heightened Def Con from 9.31216e-05 to 9.31216e-05
Heightened Def Con from 9.31216e-05 to 9.31216e-05
Heightened Def Con from 9.31216e-05 to 9.31216e-05
Heightened Def Con from 9.31895e-05 to 9.31895e-05
Heightened Def Con from 9.32508e-05 to 9.32508e-05
Heightened Def Con from 9.39907e-05 to 9.39907e-05
Heightened Def Con from 9.39907e-05 to 9.39907e-05
Heightened Def Con from 9.41763e-05 to 9.41763e-05
Heightened Def Con from 9.42515e-05 to 9.42515e-05
Heightened Def Con from 9.42515e-05 to 9.42515e-05
Heightened Def Con from 9.43216e-05 +++++++to 9.43216e-05
Heightened Def Con from 9.44516e-05 to 9.44516e-05
Heightened Def Con from 9.44516e-05 to 9.44516e-05
Heightened Def Con from 9.44516e-05 to 9.44516e-05
Heightened Def Con from 9.45487e-05 to 9.45487e-05
Heightened Def Con from 9.48519e-05 to 9.48519e-05
Heightened Def Con from 9.49488e-05 to 9.49488e-05
Heightened Def Con from 9.49756e-05 to 9.49756e-05
Heightened Def Con from 9.50307e-05 to 9.50307e-05
Heightened Def Con from 9.50521e-05 +++++to 9.50521e-05
Heightened Def Con from 9.54523e-05 to 9.54523e-05
Heightened Def Con from 9.54523e-05 to 9.54523e-05
Heightened Def Con from 9.55217e-05 to 9.55217e-05
Heightened Def Con from 9.55217e-05 to 9.55217e-05
Heightened Def Con from 9.55217e-05 to 9.55217e-05
Heightened Def Con from 9.55752e-05 to 9.55752e-05
Heightened Def Con from 9.55752e-05 to 9.55752e-05
Heightened Def Con from 9.55752e-05 to 9.55752e-05
Heightened Def Con from 9.55929e-05 to 9.55929e-05
Heightened Def Con from 9.56311e-05 +to 9.56311e-05
Heightened Def Con from 9.56311e-05 to 9.56311e-05
Heightened Def Con from 9.57933e-05 to 9.57933e-05
Heightened Def Con from 9.58528e-05 +to 9.58528e-05
Heightened Def Con from 9.58528e-05 to 9.58528e-05
Heightened Def Con from 9.60312e-05 to 9.60312e-05
Heightened Def Con from 9.60312e-05 ++++to 9.60312e-05
Heightened Def Con from 9.60312e-05 to 9.60312e-05
Heightened Def Con from 9.6149e-05 to 9.6149e-05
Heightened Def Con from 9.61938e-05 to 9.61938e-05
Heightened Def Con from 9.63485e-05 to 9.63485e-05
Heightened Def Con from 9.63485e-05 to 9.63485e-05
Heightened Def Con from 9.63941e-05 to 9.63941e-05
Heightened Def Con from 9.64533e-05 to 9.64533e-05
Heightened Def Con from 9.65941e-05 to 9.65941e-05
Heightened Def Con from 9.66534e-05 to 9.66534e-05
Heightened Def Con from 9.66534e-05 to 9.66534e-05
Heightened Def Con from 9.67218e-05 +++++++to 9.67218e-05
Heightened Def Con from 9.67218e-05 to 9.67218e-05
Heightened Def Con from 9.68535e-05 to 9.68535e-05
Heightened Def Con from 9.69491e-05 to 9.69491e-05
Heightened Def Con from 9.71489e-05 ++++to 9.71489e-05
Heightened Def Con from 9.71489e-05 to 9.71489e-05
Heightened Def Con from 9.7232e-05 ++++to 9.7232e-05
Heightened Def Con from 9.7232e-05 to 9.7232e-05
Heightened Def Con from 9.72538e-05 ++++to 9.72538e-05
Heightened Def Con from 9.72538e-05 to 9.72538e-05
Heightened Def Con from 9.72538e-05 +++++to 9.72538e-05
Heightened Def Con from 9.72538e-05 to 9.72538e-05
Heightened Def Con from 9.7549e-05 to 9.7549e-05
Heightened Def Con from 9.77726e-05 to 9.77726e-05
Heightened Def Con from 9.79961e-05 to 9.79961e-05
Heightened Def Con from 9.80545e-05 to 9.80545e-05
Heightened Def Con from 9.80545e-05 to 9.80545e-05
Heightened Def Con from 9.81217e-05 to 9.81217e-05
Heightened Def Con from 9.81217e-05 to 9.81217e-05
Heightened Def Con from 9.82326e-05 to 9.82326e-05
Heightened Def Con from 9.82326e-05 to 9.82326e-05
Heightened Def Con from 9.85488e-05 to 9.85488e-05
Heightened Def Con from 9.85488e-05 to 9.85488e-05
Heightened Def Con from 9.85488e-05 to 9.85488e-05
Heightened Def Con from 9.87216e-05 to 9.87216e-05
Heightened Def Con from 9.87216e-05 to 9.87216e-05
Heightened Def Con from 9.90332e-05 to 9.90332e-05
Heightened Def Con from 9.91717e-05 ++to 9.91717e-05
Heightened Def Con from 9.91977e-05 to 9.91977e-05
Heightened Def Con from 9.93979e-05 to 9.93979e-05
Heightened Def Con from 9.94334e-05 +++to 9.94334e-05
Heightened Def Con from 9.94334e-05 +to 9.94334e-05
Heightened Def Con from 9.96335e-05 +to 9.96335e-05
Heightened Def Con from 9.96335e-05 to 9.96335e-05
Heightened Def Con from 9.96557e-05 +++++to 9.96557e-05
Heightened Def Con from 9.97216e-05 to 9.97216e-05
Heightened Def Con from 9.97216e-05 to 9.97216e-05
Heightened Def Con from 9.97216e-05 to 9.97216e-05
Heightened Def Con from 9.98558e-05 to 9.98558e-05
Heightened Def Con from 9.98558e-05 to 9.98558e-05
Heightened Def Con from 9.99492e-05 to 9.99492e-05
Heightened Def Con from 9.99492e-05 to 9.99492e-05
Heightened Def Con from 0.000100234 to 0.000100234
Heightened Def Con from 0.000100234 to 0.000100234
Heightened Def Con from 0.000100456 to 0.000100456
Heightened Def Con from 0.000100456 to 0.000100456
Heightened Def Con from 0.000100634 to 0.000100634
Heightened Def Con from 0.000100749 to 0.000100749
Heightened Def Con from 0.000100749 to 0.000100749
Heightened Def Con from 0.000100749 to 0.000100749
Heightened Def Con from 0.00010077 to 0.00010077
Heightened Def Con from 0.00010077 to 0.00010077
Heightened Def Con from 0.000101 to 0.000101
Heightened Def Con from 0.000101 to 0.000101
Heightened Def Con from 0.000101257 to 0.000101257
Heightened Def Con from 0.000101257 to 0.000101257
Heightened Def Con from 0.000101435 to 0.000101435
Heightened Def Con from 0.000101435 to 0.000101435
Heightened Def Con from 0.000101635 to 0.000101635
Heightened Def Con from 0.000101635 ++to 0.000101635
Heightened Def Con from 0.000102257 to 0.000102257
Heightened Def Con from 0.000102257 to 0.000102257
Heightened Def Con from 0.000102549 to 0.000102549
Heightened Def Con from 0.000102602 to 0.000102602
Heightened Def Con from 0.000102921 ++++++to 0.000102921
Heightened Def Con from 0.000102921 to 0.000102921
Heightened Def Con from 0.000103035 +to 0.000103035
Heightened Def Con from 0.000103035 to 0.000103035
Heightened Def Con from 0.000103121 to 0.000103121
Heightened Def Con from 0.000103202 to 0.000103202
Heightened Def Con from 0.000103368 to 0.000103368
Heightened Def Con from 0.000103435 to 0.000103435
Heightened Def Con from 0.000103435 to 0.000103435
Heightened Def Con from 0.000103435 to 0.000103435
Heightened Def Con from 0.000103549 +++to 0.000103549
Heightened Def Con from 0.000103549 to 0.000103549
Heightened Def Con from 0.000103603 to 0.000103603
Heightened Def Con from 0.000103635 to 0.000103635
Heightened Def Con from 0.000103721 ++++to 0.000103721
Heightened Def Con from 0.000103721 to 0.000103721
Heightened Def Con from 0.000103949 to 0.000103949
Heightened Def Con from 0.000104003 to 0.000104003
Heightened Def Con from 0.000104036 to 0.000104036
Heightened Def Con from 0.000104036 to 0.000104036
Heightened Def Con from 0.000104036 to 0.000104036
Heightened Def Con from 0.000104058 to 0.000104058
Heightened Def Con from 0.000104349 ++to 0.000104349
Heightened Def Con from 0.000104459 to 0.000104459
Heightened Def Con from 0.000104766 to 0.000104766
Heightened Def Con from 0.000104836 to 0.000104836
Heightened Def Con from 0.000104836 to 0.000104836
Heightened Def Con from 0.000104921 to 0.000104921
Heightened Def Con from 0.000104921 to 0.000104921
Heightened Def Con from 0.000105259 to 0.000105259
Heightened Def Con from 0.000105405 ++to 0.000105405
Heightened Def Con from 0.000105405 to 0.000105405
Heightened Def Con from 0.000105436 to 0.000105436
Heightened Def Con from 0.000105549 to 0.000105549
Heightened Def Con from 0.000105549 to 0.000105549
Heightened Def Con from 0.000105965 to 0.000105965
Heightened Def Con from 0.000105965 to 0.000105965
Heightened Def Con from 0.000106236 to 0.000106236
Heightened Def Con from 0.000106236 to 0.000106236
Heightened Def Con from 0.00010632 ++++++to 0.00010632
Heightened Def Con from 0.00010632 to 0.00010632
Heightened Def Con from 0.000106365 to 0.000106365
Heightened Def Con from 0.000106436 to 0.000106436
Heightened Def Con from 0.000106606 to 0.000106606
Heightened Def Con from 0.000106606 to 0.000106606
Heightened Def Con from 0.000106636 +to 0.000106636
Heightened Def Con from 0.000106636 to 0.000106636
Heightened Def Con from 0.000106749 to 0.000106749
Heightened Def Con from 0.000106764 to 0.000106764
Heightened Def Con from 0.000106836 to 0.000106836
Heightened Def Con from 0.000106949 to 0.000106949
Heightened Def Con from 0.00010712 to 0.00010712
Heightened Def Con from 0.000107207 to 0.000107207
Heightened Def Con from 0.000107407 to 0.000107407
Heightened Def Con from 0.000107407 +++++to 0.000107407
Heightened Def Con from 0.000107636 to 0.000107636
Heightened Def Con from 0.00010772 ++++to 0.00010772
Heightened Def Con from 0.00010772 to 0.00010772
Heightened Def Con from 0.000107861 to 0.000107861
Heightened Def Con from 0.000108036 ++++to 0.000108036
Heightened Def Con from 0.000108036 to 0.000108036
Heightened Def Con from 0.00010812 to 0.00010812
Heightened Def Con from 0.000108208 to 0.000108208
Heightened Def Con from 0.000108208 to 0.000108208
Heightened Def Con from 0.000108235 +++++to 0.000108235
Heightened Def Con from 0.000108235 to 0.000108235
Heightened Def Con from 0.000108564 to 0.000108564
Heightened Def Con from 0.000108635 to 0.000108635
Heightened Def Con from 0.000108835 to 0.000108835
Heightened Def Con from 0.000108919 to 0.000108919
Heightened Def Con from 0.000109008 ++++to 0.000109008
Heightened Def Con from 0.000109008 to 0.000109008
Heightened Def Con from 0.000109435 to 0.000109435
Heightened Def Con from 0.000109435 to 0.000109435
Heightened Def Con from 0.000109435 +++to 0.000109435
Heightened Def Con from 0.000109435 ++++to 0.000109435
Heightened Def Con from 0.000109519 ++++to 0.000109519
Heightened Def Con from 0.000109549 to 0.000109549
Heightened Def Con from 0.000109748 to 0.000109748
Heightened Def Con from 0.000109748 to 0.000109748
Heightened Def Con from 0.000109919 to 0.000109919
Heightened Def Con from 0.000109947 to 0.000109947
Heightened Def Con from 0.000110235 to 0.000110235
Heightened Def Con from 0.000110434 ++to 0.000110434
Heightened Def Con from 0.000110434 to 0.000110434
Heightened Def Con from 0.000110548 to 0.000110548
Heightened Def Con from 0.00011061 to 0.00011061
Heightened Def Con from 0.000111118 ++++++to 0.000111118
Heightened Def Con from 0.000111364 to 0.000111364
Heightened Def Con from 0.00011141 to 0.00011141
Heightened Def Con from 0.000111463 ++to 0.000111463
Heightened Def Con from 0.000111463 to 0.000111463
Heightened Def Con from 0.000111611 to 0.000111611
Heightened Def Con from 0.000111611 to 0.000111611
Heightened Def Con from 0.000111718 to 0.000111718
Heightened Def Con from 0.000111718 to 0.000111718
Heightened Def Con from 0.000111811 to 0.000111811
Heightened Def Con from 0.000111811 to 0.000111811
Heightened Def Con from 0.000111964 to 0.000111964
Heightened Def Con from 0.000111964 to 0.000111964
Heightened Def Con from 0.000112011 to 0.000112011
Heightened Def Con from 0.000112011 to 0.000112011
Heightened Def Con from 0.000112034 to 0.000112034
Heightened Def Con from 0.000112148 to 0.000112148
Heightened Def Con from 0.000112234 +++to 0.000112234
Heightened Def Con from 0.000112348 +++to 0.000112348
Heightened Def Con from 0.000112463 to 0.000112463
Heightened Def Con from 0.000112764 to 0.000112764
Heightened Def Con from 0.000112833 ++++to 0.000112833
Heightened Def Con from 0.000112833 ++++to 0.000112833
Heightened Def Con from 0.000112833 to 0.000112833
Heightened Def Con from 0.000112833 to 0.000112833
Heightened Def Con from 0.000112917 +++++++to 0.000112917
Heightened Def Con from 0.000112947 to 0.000112947
Heightened Def Con from 0.000113033 +++++to 0.000113033
Heightened Def Con from 0.000113117 ++to 0.000113117
Heightened Def Con from 0.000113117 ++++++to 0.000113117
Heightened Def Con from 0.000113147 to 0.000113147
Heightened Def Con from 0.000113164 to 0.000113164
Heightened Def Con from 0.000113317 to 0.000113317
Heightened Def Con from 0.000113317 to 0.000113317
Heightened Def Con from 0.000113412 to 0.000113412
Heightened Def Con from 0.000113412 to 0.000113412
Heightened Def Con from 0.000113412 to 0.000113412
Heightened Def Con from 0.000113412 to 0.000113412
Heightened Def Con from 0.000113517 to 0.000113517
Heightened Def Con from 0.000113564 to 0.000113564
Heightened Def Con from 0.000113717 +to 0.000113717
Heightened Def Con from 0.000113717 to 0.000113717
Heightened Def Con from 0.000113947 to 0.000113947
Heightened Def Con from 0.000113947 to 0.000113947
Heightened Def Con from 0.000114212 to 0.000114212
Heightened Def Con from 0.000114233 +++to 0.000114233
Heightened Def Con from 0.000114233 to 0.000114233
Heightened Def Con from 0.000114516 to 0.000114516
Heightened Def Con from 0.000114664 to 0.000114664
Heightened Def Con from 0.000114864 to 0.000114864
Heightened Def Con from 0.000114963 to 0.000114963
Heightened Def Con from 0.000114963 to 0.000114963
Heightened Def Con from 0.000115163 to 0.000115163
Heightened Def Con from 0.000115264 to 0.000115264
Heightened Def Con from 0.000115347 to 0.000115347
Heightened Def Con from 0.000115413 to 0.000115413
Heightened Def Con from 0.000115632 to 0.000115632
Heightened Def Con from 0.000115716 ++++++to 0.000115716
Heightened Def Con from 0.000115948 to 0.000115948
Heightened Def Con from 0.000116014 to 0.000116014
Heightened Def Con from 0.000116116 to 0.000116116
Heightened Def Con from 0.000116148 to 0.000116148
Heightened Def Con from 0.000116265 +++to 0.000116265
Heightened Def Con from 0.000116265 to 0.000116265
Heightened Def Con from 0.000116363 to 0.000116363
Heightened Def Con from 0.000116465 to 0.000116465
Heightened Def Con from 0.000116548 ++to 0.000116548
Heightened Def Con from 0.000116814 to 0.000116814
Heightened Def Con from 0.000116814 to 0.000116814
Heightened Def Con from 0.000116814 to 0.000116814
Heightened Def Con from 0.000116814 to 0.000116814
Heightened Def Con from 0.000116961 to 0.000116961
Heightened Def Con from 0.000116961 to 0.000116961
Heightened Def Con from 0.000117032 +to 0.000117032
Heightened Def Con from 0.000117032 to 0.000117032
Heightened Def Con from 0.000117215 to 0.000117215
Heightened Def Con from 0.000117215 to 0.000117215
Heightened Def Con from 0.000117315 to 0.000117315
Heightened Def Con from 0.000117315 to 0.000117315
Heightened Def Con from 0.000117515 to 0.000117515
Heightened Def Con from 0.000117748 to 0.000117748
Heightened Def Con from 0.000117961 to 0.000117961
Heightened Def Con from 0.000118015 to 0.000118015
Heightened Def Con from 0.000118015 to 0.000118015
Heightened Def Con from 0.000118065 to 0.000118065
Heightened Def Con from 0.000118231 ++++to 0.000118231
Heightened Def Con from 0.000118415 ++++to 0.000118415
Heightened Def Con from 0.000118415 to 0.000118415
Heightened Def Con from 0.00011856 to 0.00011856
Heightened Def Con from 0.000118815 to 0.000118815
Heightened Def Con from 0.000118831 +to 0.000118831
Heightened Def Con from 0.000118831 to 0.000118831
Heightened Def Con from 0.000118949 to 0.000118949
Heightened Def Con from 0.000119231 to 0.000119231
Heightened Def Con from 0.000119265 to 0.000119265
Heightened Def Con from 0.000119265 to 0.000119265
Heightened Def Con from 0.000119416 to 0.000119416
Heightened Def Con from 0.000119416 to 0.000119416
Heightened Def Con from 0.000119416 to 0.000119416
Heightened Def Con from 0.000119416 to 0.000119416
Heightened Def Con from 0.000119431 to 0.000119431
Heightened Def Con from 0.000119431 to 0.000119431
Heightened Def Con from 0.000119431 +++++to 0.000119431
Heightened Def Con from 0.000119431 ++to 0.000119431
Heightened Def Con from 0.000119616 to 0.000119616
Heightened Def Con from 0.000119616 to 0.000119616
Heightened Def Con from 0.000119816 to 0.000119816
Heightened Def Con from 0.000119865 to 0.000119865
Heightened Def Con from 0.000119865 to 0.000119865
Heightened Def Con from 0.000119865 to 0.000119865
Heightened Def Con from 0.000119913 to 0.000119913
Heightened Def Con from 0.000119949 to 0.000119949
Heightened Def Con from 0.000120016 to 0.000120016
Heightened Def Con from 0.00012015 to 0.00012015
Heightened Def Con from 0.000120231 to 0.000120231
Heightened Def Con from 0.000120231 to 0.000120231
Heightened Def Con from 0.000120265 to 0.000120265
Heightened Def Con from 0.000120265 to 0.000120265
Heightened Def Con from 0.000120265 +to 0.000120265
Heightened Def Con from 0.000120265 to 0.000120265
Heightened Def Con from 0.000120313 to 0.000120313
Heightened Def Con from 0.000120513 to 0.000120513
Heightened Def Con from 0.000120631 ++++to 0.000120631
Heightened Def Con from 0.000120631 to 0.000120631
Heightened Def Con from 0.000120631 to 0.000120631
Heightened Def Con from 0.000120751 to 0.000120751
Heightened Def Con from 0.000120756 +to 0.000120756
Heightened Def Con from 0.000120831 to 0.000120831
Heightened Def Con from 0.000120913 to 0.000120913
Heightened Def Con from 0.000120913 to 0.000120913
Heightened Def Con from 0.000121017 ++to 0.000121017
Heightened Def Con from 0.000121031 to 0.000121031
Heightened Def Con from 0.000121031 to 0.000121031
Heightened Def Con from 0.000121031 to 0.000121031
Heightened Def Con from 0.000121113 +to 0.000121113
Heightened Def Con from 0.000121113 +++++to 0.000121113
Heightened Def Con from 0.000121113 to 0.000121113
Heightened Def Con from 0.000121217 to 0.000121217
Heightened Def Con from 0.000121217 +++++to 0.000121217
Heightened Def Con from 0.000121712 to 0.000121712
Heightened Def Con from 0.000121817 to 0.000121817
Heightened Def Con from 0.000121817 to 0.000121817
Heightened Def Con from 0.000122031 to 0.000122031
Heightened Def Con from 0.000122031 to 0.000122031
Heightened Def Con from 0.000122431 ++to 0.000122431
Heightened Def Con from 0.000122617 to 0.000122617
Heightened Def Con from 0.000122817 to 0.000122817
Heightened Def Con from 0.000122832 to 0.000122832
Heightened Def Con from 0.000123065 +++to 0.000123065
Heightened Def Con from 0.000123065 to 0.000123065
Heightened Def Con from 0.000123218 to 0.000123218
Heightened Def Con from 0.000123218 to 0.000123218
Heightened Def Con from 0.000123218 to 0.000123218
Heightened Def Con from 0.000123432 to 0.000123432
Heightened Def Con from 0.000123465 to 0.000123465
Heightened Def Con from 0.000123465 to 0.000123465
Heightened Def Con from 0.000123465 to 0.000123465
Heightened Def Con from 0.000123465 +to 0.000123465
Heightened Def Con from 0.000123465 to 0.000123465
Heightened Def Con from 0.000123465 to 0.000123465
Heightened Def Con from 0.000123665 to 0.000123665
Heightened Def Con from 0.000123832 to 0.000123832
Heightened Def Con from 0.000124111 to 0.000124111
Heightened Def Con from 0.000124232 to 0.000124232
Heightened Def Con from 0.000124465 to 0.000124465
Heightened Def Con from 0.000124632 to 0.000124632
Heightened Def Con from 0.000124632 to 0.000124632
Heightened Def Con from 0.000124632 to 0.000124632
Heightened Def Con from 0.000124818 to 0.000124818
Heightened Def Con from 0.000124832 to 0.000124832
Heightened Def Con from 0.000125018 to 0.000125018
Heightened Def Con from 0.000125018 to 0.000125018
Heightened Def Con from 0.000125018 to 0.000125018
Heightened Def Con from 0.000125233 to 0.000125233
Heightened Def Con from 0.00012531 ++++to 0.00012531
Heightened Def Con from 0.00012531 to 0.00012531
Heightened Def Con from 0.00012551 to 0.00012551
Heightened Def Con from 0.000126033 to 0.000126033
Heightened Def Con from 0.000126219 to 0.000126219
Heightened Def Con from 0.000126233 to 0.000126233
Heightened Def Con from 0.000126233 to 0.000126233
Heightened Def Con from 0.000126309 +++++to 0.000126309
Heightened Def Con from 0.000126419 ++++to 0.000126419
Heightened Def Con from 0.000126419 to 0.000126419
Heightened Def Con from 0.000126863 to 0.000126863
Heightened Def Con from 0.000126909 to 0.000126909
Heightened Def Con from 0.000127034 to 0.000127034
Heightened Def Con from 0.000127063 to 0.000127063
Heightened Def Con from 0.000127063 to 0.000127063
Heightened Def Con from 0.000127419 to 0.000127419
Heightened Def Con from 0.000127463 to 0.000127463
Heightened Def Con from 0.000127708 to 0.000127708
Heightened Def Con from 0.000127708 ++++to 0.000127708
Heightened Def Con from 0.000127835 to 0.000127835
Heightened Def Con from 0.000128108 to 0.000128108
Heightened Def Con from 0.000128108 ++to 0.000128108
Heightened Def Con from 0.000128308 to 0.000128308
Heightened Def Con from 0.000128308 to 0.000128308
Heightened Def Con from 0.000128419 to 0.000128419
Heightened Def Con from 0.000128419 to 0.000128419
Heightened Def Con from 0.000128462 to 0.000128462
Heightened Def Con from 0.000128462 to 0.000128462
Heightened Def Con from 0.000128619 to 0.000128619
Heightened Def Con from 0.000128636 to 0.000128636
Heightened Def Con from 0.00012902 to 0.00012902
Heightened Def Con from 0.00012922 to 0.00012922
Heightened Def Con from 0.00012942 to 0.00012942
Heightened Def Con from 0.000129437 to 0.000129437
Heightened Def Con from 0.000129437 to 0.000129437
Heightened Def Con from 0.000129437 to 0.000129437
Heightened Def Con from 0.000129507 to 0.000129507
Heightened Def Con from 0.00012962 to 0.00012962
Heightened Def Con from 0.00012982 to 0.00012982
Heightened Def Con from 0.000129837 to 0.000129837
Heightened Def Con from 0.000129861 to 0.000129861
Heightened Def Con from 0.000130238 to 0.000130238
Heightened Def Con from 0.000130438 to 0.000130438
Heightened Def Con from 0.000130438 to 0.000130438
Heightened Def Con from 0.00013062 to 0.00013062
Heightened Def Con from 0.00013082 to 0.00013082
Heightened Def Con from 0.00013082 to 0.00013082
Heightened Def Con from 0.000130839 ++++to 0.000130839
Heightened Def Con from 0.000130839 to 0.000130839
Heightened Def Con from 0.00013086 ++to 0.00013086
Heightened Def Con from 0.00013102 to 0.00013102
Heightened Def Con from 0.000131239 to 0.000131239
Heightened Def Con from 0.000131239 to 0.000131239
Heightened Def Con from 0.00013144 to 0.00013144
Heightened Def Con from 0.00013144 to 0.00013144
Heightened Def Con from 0.00013182 ++to 0.00013182
Heightened Def Con from 0.00013182 to 0.00013182
Heightened Def Con from 0.00013242 to 0.00013242
Heightened Def Con from 0.000132442 to 0.000132442
Heightened Def Con from 0.000132442 to 0.000132442
Heightened Def Con from 0.000132504 +++++to 0.000132504
Heightened Def Con from 0.000132504 to 0.000132504
Heightened Def Con from 0.000132704 to 0.000132704
Heightened Def Con from 0.000132843 to 0.000132843
Heightened Def Con from 0.000132843 ++++to 0.000132843
Heightened Def Con from 0.000133103 to 0.000133103
Heightened Def Con from 0.000133303 to 0.000133303
Heightened Def Con from 0.000133855 to 0.000133855
Heightened Def Con from 0.000133855 to 0.000133855
Heightened Def Con from 0.000134102 to 0.000134102
Heightened Def Con from 0.000134102 to 0.000134102
Heightened Def Con from 0.000134254 to 0.000134254
Heightened Def Con from 0.000134254 to 0.000134254
Heightened Def Con from 0.000134254 to 0.000134254
Heightened Def Con from 0.000134448 to 0.000134448
Heightened Def Con from 0.00013482 to 0.00013482
Heightened Def Con from 0.00013482 to 0.00013482
Heightened Def Con from 0.000135101 ++++++to 0.000135101
Heightened Def Con from 0.000135101 +++++++to 0.000135101
Heightened Def Con from 0.00013522 to 0.00013522
Heightened Def Con from 0.000135301 to 0.000135301
Heightened Def Con from 0.000135545 to 0.000135545
Heightened Def Con from 0.00013562 to 0.00013562
Heightened Def Con from 0.00013562 to 0.00013562
Heightened Def Con from 0.000135701 to 0.000135701
Heightened Def Con from 0.000135701 ++to 0.000135701
Heightened Def Con from 0.0001361 to 0.0001361
Heightened Def Con from 0.0001361 to 0.0001361
Heightened Def Con from 0.000137099 to 0.000137099
Heightened Def Con from 0.00013722 to 0.00013722
Heightened Def Con from 0.000137299 to 0.000137299
Heightened Def Con from 0.000137336 to 0.000137336
Heightened Def Con from 0.000137336 to 0.000137336
Heightened Def Con from 0.00013742 to 0.00013742
Heightened Def Con from 0.000137536 to 0.000137536
Heightened Def Con from 0.00013762 to 0.00013762
Heightened Def Con from 0.000137736 to 0.000137736
Heightened Def Con from 0.000137736 to 0.000137736
Heightened Def Con from 0.000137898 to 0.000137898
Heightened Def Con from 0.000137898 ++++to 0.000137898
Heightened Def Con from 0.000137898 to 0.000137898
Heightened Def Con from 0.00013822 to 0.00013822
Heightened Def Con from 0.00013822 to 0.00013822
Heightened Def Con from 0.00013822 to 0.00013822
Heightened Def Con from 0.00013822 to 0.00013822
Heightened Def Con from 0.00013822 to 0.00013822
Heightened Def Con from 0.00013822 to 0.00013822
Heightened Def Con from 0.000138347 to 0.000138347
Heightened Def Con from 0.000138347 to 0.000138347
Heightened Def Con from 0.00013862 to 0.00013862
Heightened Def Con from 0.000139147 to 0.000139147
Heightened Def Con from 0.000139419 ++++to 0.000139419
Heightened Def Con from 0.000139419 to 0.000139419
Heightened Def Con from 0.000139419 to 0.000139419
Heightened Def Con from 0.000139419 to 0.000139419
Heightened Def Con from 0.000139496 to 0.000139496
Heightened Def Con from 0.000139547 to 0.000139547
Heightened Def Con from 0.000139932 to 0.000139932
Heightened Def Con from 0.000139932 +to 0.000139932
Heightened Def Con from 0.000140096 to 0.000140096
Heightened Def Con from 0.000140131 to 0.000140131
Heightened Def Con from 0.000140331 to 0.000140331
Heightened Def Con from 0.00014053 to 0.00014053
Heightened Def Con from 0.00014053 to 0.00014053
Heightened Def Con from 0.000140619 to 0.000140619
Heightened Def Con from 0.000140948 to 0.000140948
Heightened Def Con from 0.000141095 to 0.000141095
Heightened Def Con from 0.000141095 ++++to 0.000141095
Heightened Def Con from 0.000141149 to 0.000141149
Heightened Def Con from 0.000141294 to 0.000141294
Heightened Def Con from 0.000141294 to 0.000141294
Heightened Def Con from 0.000141494 to 0.000141494
Heightened Def Con from 0.000141549 +to 0.000141549
Heightened Def Con from 0.000141549 to 0.000141549
Heightened Def Con from 0.000142093 ++++++to 0.000142093
Heightened Def Con from 0.000142618 to 0.000142618
Heightened Def Con from 0.000142727 to 0.000142727
Heightened Def Con from 0.000142727 ++++to 0.000142727
Heightened Def Con from 0.000142727 to 0.000142727
Heightened Def Con from 0.000142926 to 0.000142926
Heightened Def Con from 0.000143092 to 0.000143092
Heightened Def Con from 0.000143092 to 0.000143092
Heightened Def Con from 0.000143092 to 0.000143092
Heightened Def Con from 0.000143325 to 0.000143325
Heightened Def Con from 0.000143418 to 0.000143418
Heightened Def Con from 0.000143418 to 0.000143418
Heightened Def Con from 0.00014355 to 0.00014355
Heightened Def Con from 0.000143691 to 0.000143691
Heightened Def Con from 0.000143818 to 0.000143818
Heightened Def Con from 0.000143925 to 0.000143925
Heightened Def Con from 0.000144151 ++to 0.000144151
Heightened Def Con from 0.000144151 to 0.000144151
Heightened Def Con from 0.000144218 to 0.000144218
Heightened Def Con from 0.000144218 to 0.000144218
Heightened Def Con from 0.000144418 to 0.000144418
Heightened Def Con from 0.000144418 to 0.000144418
Heightened Def Con from 0.000144751 to 0.000144751
Heightened Def Con from 0.000144751 to 0.000144751
Heightened Def Con from 0.000144751 to 0.000144751
Heightened Def Con from 0.000144751 to 0.000144751
Heightened Def Con from 0.000144751 +++to 0.000144751
Heightened Def Con from 0.00014489 to 0.00014489
Heightened Def Con from 0.000145289 to 0.000145289
Heightened Def Con from 0.000145289 ++++++to 0.000145289
Heightened Def Con from 0.000145617 to 0.000145617
Heightened Def Con from 0.000145617 +++++to 0.000145617
Heightened Def Con from 0.000145752 to 0.000145752
Heightened Def Con from 0.000145817 to 0.000145817
Heightened Def Con from 0.000145817 to 0.000145817
Heightened Def Con from 0.000145888 +++to 0.000145888
Heightened Def Con from 0.000146017 to 0.000146017
Heightened Def Con from 0.000146017 ++to 0.000146017
Heightened Def Con from 0.000146017 to 0.000146017
Heightened Def Con from 0.000146152 to 0.000146152
Heightened Def Con from 0.000146217 to 0.000146217
Heightened Def Con from 0.000146352 to 0.000146352
Heightened Def Con from 0.000146617 to 0.000146617
Heightened Def Con from 0.000146687 +++++to 0.000146687
Heightened Def Con from 0.000146687 to 0.000146687
Heightened Def Con from 0.000146887 ++++to 0.000146887
Heightened Def Con from 0.000147016 to 0.000147016
Heightened Def Con from 0.00014712 +to 0.00014712
Heightened Def Con from 0.00014712 to 0.00014712
Heightened Def Con from 0.00014732 to 0.00014732
Heightened Def Con from 0.000147416 to 0.000147416
Heightened Def Con from 0.000147486 to 0.000147486
Heightened Def Con from 0.000147486 +++++to 0.000147486
Heightened Def Con from 0.000147486 to 0.000147486
Heightened Def Con from 0.00014792 to 0.00014792
Heightened Def Con from 0.00014792 to 0.00014792
Heightened Def Con from 0.00014792 to 0.00014792
Heightened Def Con from 0.000148016 to 0.000148016
Heightened Def Con from 0.000148416 to 0.000148416
Heightened Def Con from 0.000148616 +++++to 0.000148616
Heightened Def Con from 0.000149152 to 0.000149152
Heightened Def Con from 0.000149352 to 0.000149352
Heightened Def Con from 0.00014952 +to 0.00014952
Heightened Def Con from 0.000149683 to 0.000149683
Heightened Def Con from 0.000149883 +++++to 0.000149883
Heightened Def Con from 0.00014992 to 0.00014992
Heightened Def Con from 0.00014992 to 0.00014992
Heightened Def Con from 0.000149952 to 0.000149952
Heightened Def Con from 0.000149952 to 0.000149952
Heightened Def Con from 0.000150152 to 0.000150152
Heightened Def Con from 0.000150152 to 0.000150152
Heightened Def Con from 0.000150215 ++to 0.000150215
Heightened Def Con from 0.000150215 to 0.000150215
Heightened Def Con from 0.000150681 +++to 0.000150681
Heightened Def Con from 0.00015072 to 0.00015072
Heightened Def Con from 0.000151121 to 0.000151121
Heightened Def Con from 0.000151121 to 0.000151121
Heightened Def Con from 0.00015115 to 0.00015115
Heightened Def Con from 0.000151523 to 0.000151523
Heightened Def Con from 0.000151748 to 0.000151748
Heightened Def Con from 0.000151748 to 0.000151748
Heightened Def Con from 0.000152014 ++++to 0.000152014
Heightened Def Con from 0.000152014 to 0.000152014
Heightened Def Con from 0.000152527 to 0.000152527
Heightened Def Con from 0.000152527 to 0.000152527
Heightened Def Con from 0.000152678 +++to 0.000152678
Heightened Def Con from 0.000152678 to 0.000152678
Heightened Def Con from 0.000152728 to 0.000152728
Heightened Def Con from 0.000152813 ++++to 0.000152813
Heightened Def Con from 0.000152813 to 0.000152813
Heightened Def Con from 0.000152944 +to 0.000152944
Heightened Def Con from 0.000152944 to 0.000152944
Heightened Def Con from 0.000153213 ++to 0.000153213
Heightened Def Con from 0.000153213 to 0.000153213
Heightened Def Con from 0.000153613 to 0.000153613
Heightened Def Con from 0.000153613 to 0.000153613
Heightened Def Con from 0.000153676 to 0.000153676
Heightened Def Con from 0.000153676 to 0.000153676
Heightened Def Con from 0.000153676 +to 0.000153676
Heightened Def Con from 0.000153676 to 0.000153676
Heightened Def Con from 0.000153813 to 0.000153813
Heightened Def Con from 0.000154013 to 0.000154013
Heightened Def Con from 0.000154212 to 0.000154212
Heightened Def Con from 0.000154212 to 0.000154212
Heightened Def Con from 0.000154212 to 0.000154212
Heightened Def Con from 0.000154275 to 0.000154275
Heightened Def Con from 0.000154412 +++++to 0.000154412
Heightened Def Con from 0.000154612 to 0.000154612
Heightened Def Con from 0.000154674 +to 0.000154674
Heightened Def Con from 0.000154674 to 0.000154674
Heightened Def Con from 0.000154674 ++++to 0.000154674
Heightened Def Con from 0.000154674 to 0.000154674
Heightened Def Con from 0.000154812 to 0.000154812
Heightened Def Con from 0.000154812 to 0.000154812
Heightened Def Con from 0.000154812 to 0.000154812
Heightened Def Con from 0.000155073 to 0.000155073
Heightened Def Con from 0.000155073 to 0.000155073
Heightened Def Con from 0.000155212 to 0.000155212
Heightened Def Con from 0.000155272 to 0.000155272
Heightened Def Con from 0.000155272 ++to 0.000155272
Heightened Def Con from 0.000155272 to 0.000155272
Heightened Def Con from 0.000155272 +++++to 0.000155272
Heightened Def Con from 0.000156668 to 0.000156668
Heightened Def Con from 0.000156668 to 0.000156668
Heightened Def Con from 0.000156668 to 0.000156668
Heightened Def Con from 0.000156668 +++++to 0.000156668
Heightened Def Con from 0.000156668 to 0.000156668
Heightened Def Con from 0.000158259 to 0.000158259
Heightened Def Con from 0.000158259 to 0.000158259
Heightened Def Con from 0.000158809 to 0.000158809
Heightened Def Con from 0.000158858 +to 0.000158858
Heightened Def Con from 0.000158858 to 0.000158858
Heightened Def Con from 0.000159009 to 0.000159009
Heightened Def Con from 0.000159009 to 0.000159009
Heightened Def Con from 0.000159209 to 0.000159209
Heightened Def Con from 0.000159258 to 0.000159258
Heightened Def Con from 0.000159258 to 0.000159258
Heightened Def Con from 0.000159258 ++to 0.000159258
Heightened Def Con from 0.000159258 ++to 0.000159258
Heightened Def Con from 0.000159258 to 0.000159258
Heightened Def Con from 0.000159258 to 0.000159258
Heightened Def Con from 0.000159409 to 0.000159409
Heightened Def Con from 0.000159857 to 0.000159857
Heightened Def Con from 0.000160057 to 0.000160057
Heightened Def Con from 0.000160408 to 0.000160408
Heightened Def Con from 0.000160408 to 0.000160408
Heightened Def Con from 0.000160408 to 0.000160408
Heightened Def Con from 0.000161256 to 0.000161256
Heightened Def Con from 0.000161256 ++to 0.000161256
Heightened Def Con from 0.000161256 to 0.000161256
Heightened Def Con from 0.000161256 to 0.000161256
Heightened Def Con from 0.000161407 to 0.000161407
Heightened Def Con from 0.000161407 to 0.000161407
Heightened Def Con from 0.000161407 to 0.000161407
Heightened Def Con from 0.000161457 to 0.000161457
Heightened Def Con from 0.000161657 to 0.000161657
Heightened Def Con from 0.000161856 to 0.000161856
Heightened Def Con from 0.000162207 +++to 0.000162207
Heightened Def Con from 0.000162207 to 0.000162207
Heightened Def Con from 0.000163256 to 0.000163256
Heightened Def Con from 0.000163256 to 0.000163256
Heightened Def Con from 0.000163406 to 0.000163406
Heightened Def Con from 0.000164605 to 0.000164605
Heightened Def Con from 0.000165404 to 0.000165404
Heightened Def Con from 0.000165457 to 0.000165457
Heightened Def Con from 0.000165457 to 0.000165457
Heightened Def Con from 0.000165663 to 0.000165663
Heightened Def Con from 0.00016567 ++to 0.00016567
Heightened Def Con from 0.00016567 to 0.00016567
Heightened Def Con from 0.000165862 to 0.000165862
Heightened Def Con from 0.000165862 to 0.000165862
Heightened Def Con from 0.000166059 to 0.000166059
Heightened Def Con from 0.000166059 to 0.000166059
Heightened Def Con from 0.000166603 +++++to 0.000166603
Heightened Def Con from 0.000166803 +++to 0.000166803
Heightened Def Con from 0.000166803 to 0.000166803
Heightened Def Con from 0.000166803 to 0.000166803
Heightened Def Con from 0.000166872 to 0.000166872
Heightened Def Con from 0.000167003 to 0.000167003
Heightened Def Con from 0.000167072 to 0.000167072
Heightened Def Con from 0.000168073 to 0.000168073
Heightened Def Con from 0.000168073 to 0.000168073
Heightened Def Con from 0.000168202 to 0.000168202
Heightened Def Con from 0.000168273 to 0.000168273
Heightened Def Con from 0.000168402 +++to 0.000168402
Heightened Def Con from 0.000168402 to 0.000168402
Heightened Def Con from 0.000168602 to 0.000168602
Heightened Def Con from 0.000168602 to 0.000168602
Heightened Def Con from 0.000169401 to 0.000169401
Heightened Def Con from 0.000169401 to 0.000169401
Heightened Def Con from 0.000169401 to 0.000169401
Heightened Def Con from 0.000169401 to 0.000169401
Heightened Def Con from 0.000169601 to 0.000169601
Heightened Def Con from 0.000169601 ++to 0.000169601
Heightened Def Con from 0.0001704 to 0.0001704
Heightened Def Con from 0.000170674 to 0.000170674
Heightened Def Con from 0.000171274 to 0.000171274
Heightened Def Con from 0.000171399 to 0.000171399
Heightened Def Con from 0.000171599 ++++to 0.000171599
Heightened Def Con from 0.000171599 to 0.000171599
Heightened Def Con from 0.000172074 to 0.000172074
Heightened Def Con from 0.000172074 to 0.000172074
Heightened Def Con from 0.000173398 to 0.000173398
Heightened Def Con from 0.000173398 to 0.000173398
Heightened Def Con from 0.000173474 to 0.000173474
Heightened Def Con from 0.000173997 to 0.000173997
Heightened Def Con from 0.000173997 to 0.000173997
Heightened Def Con from 0.000174197 to 0.000174197
Heightened Def Con from 0.000175796 +++to 0.000175796
Heightened Def Con from 0.000175874 to 0.000175874
Heightened Def Con from 0.000175874 to 0.000175874
Heightened Def Con from 0.000176195 ++++to 0.000176195
Heightened Def Con from 0.000176994 to 0.000176994
Heightened Def Con from 0.000177394 to 0.000177394
Heightened Def Con from 0.000177994 to 0.000177994
Heightened Def Con from 0.000178793 ++++to 0.000178793
Heightened Def Con from 0.000178793 to 0.000178793
Heightened Def Con from 0.000180074 to 0.000180074
Heightened Def Con from 0.000180074 to 0.000180074
Heightened Def Con from 0.000180074 to 0.000180074
Heightened Def Con from 0.000180074 to 0.000180074
Heightened Def Con from 0.000180074 to 0.000180074
Heightened Def Con from 0.000180074 +++++to 0.000180074
Heightened Def Con from 0.000180074 to 0.000180074
Heightened Def Con from 0.000180074 to 0.000180074
Heightened Def Con from 0.000180791 to 0.000180791
Heightened Def Con from 0.000180991 +++to 0.000180991
Heightened Def Con from 0.00018199 to 0.00018199
Heightened Def Con from 0.00018199 to 0.00018199
Heightened Def Con from 0.00018199 to 0.00018199
Heightened Def Con from 0.000183988 ++++to 0.000183988
Heightened Def Con from 0.000184673 to 0.000184673
Heightened Def Con from 0.000184673 +++++to 0.000184673
Heightened Def Con from 0.000184673 to 0.000184673
Heightened Def Con from 0.000184787 to 0.000184787
Heightened Def Con from 0.000184787 to 0.000184787
Heightened Def Con from 0.000184873 to 0.000184873
Heightened Def Con from 0.000185786 +++++to 0.000185786
Heightened Def Con from 0.000187073 to 0.000187073
Heightened Def Con from 0.000188583 to 0.000188583
Heightened Def Con from 0.000188583 to 0.000188583
Heightened Def Con from 0.000188673 +++++to 0.000188673
Heightened Def Con from 0.000188982 to 0.000188982
Heightened Def Con from 0.000188982 to 0.000188982
Heightened Def Con from 0.000189182 ++++to 0.000189182
Heightened Def Con from 0.000189182 to 0.000189182
Heightened Def Con from 0.000189182 to 0.000189182
Heightened Def Con from 0.000189981 to 0.000189981
Heightened Def Con from 0.000190674 ++++to 0.000190674
Heightened Def Con from 0.00019118 to 0.00019118
Heightened Def Con from 0.00019118 to 0.00019118
Heightened Def Con from 0.000191779 to 0.000191779
Heightened Def Con from 0.000192074 to 0.000192074
Heightened Def Con from 0.000192778 to 0.000192778
Heightened Def Con from 0.000194075 to 0.000194075
Heightened Def Con from 0.000194775 to 0.000194775
Heightened Def Con from 0.000196772 to 0.000196772
Heightened Def Con from 0.000196877 to 0.000196877
Heightened Def Con from 0.000196877 to 0.000196877
Heightened Def Con from 0.000196877 to 0.000196877
Heightened Def Con from 0.000196972 to 0.000196972
Heightened Def Con from 0.000196972 to 0.000196972
Heightened Def Con from 0.000197077 to 0.000197077
Heightened Def Con from 0.000197677 ++++to 0.000197677
Heightened Def Con from 0.000197771 to 0.000197771
Heightened Def Con from 0.000197771 to 0.000197771
Heightened Def Con from 0.000198277 +++to 0.000198277
Heightened Def Con from 0.000198678 to 0.000198678
Heightened Def Con from 0.000198678 +++to 0.000198678
Heightened Def Con from 0.00019877 ++to 0.00019877
Heightened Def Con from 0.00019877 to 0.00019877
Heightened Def Con from 0.000198878 ++to 0.000198878
Heightened Def Con from 0.000198878 to 0.000198878
Heightened Def Con from 0.000198969 to 0.000198969
Heightened Def Con from 0.000199278 +to 0.000199278
Heightened Def Con from 0.000199278 +++++to 0.000199278
Heightened Def Con from 0.000199278 to 0.000199278
Heightened Def Con from 0.000199768 to 0.000199768
Heightened Def Con from 0.000199768 to 0.000199768
Heightened Def Con from 0.000200367 +++++to 0.000200367
Heightened Def Con from 0.000200567 to 0.000200567
Heightened Def Con from 0.000200567 to 0.000200567
Heightened Def Con from 0.000200679 ++++to 0.000200679
Heightened Def Con from 0.000200679 ++to 0.000200679
Heightened Def Con from 0.000200679 to 0.000200679
Heightened Def Con from 0.000201679 to 0.000201679
Heightened Def Con from 0.000201965 +to 0.000201965
Heightened Def Con from 0.000201965 to 0.000201965
Heightened Def Con from 0.000202279 to 0.000202279
Heightened Def Con from 0.000202279 to 0.000202279
Heightened Def Con from 0.000202365 to 0.000202365
Heightened Def Con from 0.000202365 to 0.000202365
Heightened Def Con from 0.000202964 to 0.000202964
Heightened Def Con from 0.00020308 to 0.00020308
Heightened Def Con from 0.00020348 to 0.00020348
Heightened Def Con from 0.00020348 to 0.00020348
Heightened Def Con from 0.00020428 to 0.00020428
Heightened Def Con from 0.00020428 to 0.00020428
Heightened Def Con from 0.00020428 to 0.00020428
Heightened Def Con from 0.00020428 to 0.00020428
Heightened Def Con from 0.00020528 to 0.00020528
Heightened Def Con from 0.00020528 to 0.00020528
Heightened Def Con from 0.00020528 ++++to 0.00020528
Heightened Def Con from 0.000205762 to 0.000205762
Heightened Def Con from 0.000205762 to 0.000205762
Heightened Def Con from 0.000205962 ++to 0.000205962
Heightened Def Con from 0.000206761 to 0.000206761
Heightened Def Con from 0.000206761 to 0.000206761
Heightened Def Con from 0.000207081 ++++to 0.000207081
Heightened Def Con from 0.00020856 to 0.00020856
Heightened Def Con from 0.00020896 +++to 0.00020896
Heightened Def Con from 0.00020896 to 0.00020896
Heightened Def Con from 0.00020976 +++to 0.00020976
Heightened Def Con from 0.00020976 to 0.00020976
Heightened Def Con from 0.000209881 to 0.000209881
Heightened Def Con from 0.000210281 to 0.000210281
Heightened Def Con from 0.000210481 to 0.000210481
Heightened Def Con from 0.000210881 to 0.000210881
Heightened Def Con from 0.000210881 +++++to 0.000210881
Heightened Def Con from 0.000210881 +to 0.000210881
Heightened Def Con from 0.000210881 to 0.000210881
Heightened Def Con from 0.000210881 to 0.000210881
Heightened Def Con from 0.000211482 ++to 0.000211482
Heightened Def Con from 0.000211482 to 0.000211482
Heightened Def Con from 0.000211482 to 0.000211482
Heightened Def Con from 0.000212082 ++to 0.000212082
Heightened Def Con from 0.000212082 to 0.000212082
Heightened Def Con from 0.000212559 to 0.000212559
Heightened Def Con from 0.000213482 to 0.000213482
Heightened Def Con from 0.000216082 +++++to 0.000216082
Heightened Def Con from 0.000216558 to 0.000216558
Heightened Def Con from 0.000216881 ++++to 0.000216881
Heightened Def Con from 0.000216881 to 0.000216881
Heightened Def Con from 0.000216957 to 0.000216957
Heightened Def Con from 0.000218079 +++++to 0.000218079
Heightened Def Con from 0.000218557 to 0.000218557
Heightened Def Con from 0.000218678 to 0.000218678
Heightened Def Con from 0.000219157 +++to 0.000219157
Heightened Def Con from 0.000219157 to 0.000219157
Heightened Def Con from 0.000219478 to 0.000219478
Heightened Def Con from 0.000219956 to 0.000219956
Heightened Def Con from 0.000219956 to 0.000219956
Heightened Def Con from 0.000220156 to 0.000220156
Heightened Def Con from 0.000220156 to 0.000220156
Heightened Def Con from 0.000220279 to 0.000220279
Heightened Def Con from 0.000220479 ++++++to 0.000220479
Heightened Def Con from 0.000220479 +++++to 0.000220479
Heightened Def Con from 0.000220479 to 0.000220479
Heightened Def Con from 0.000220479 to 0.000220479
Heightened Def Con from 0.000220956 +++to 0.000220956
Heightened Def Con from 0.000220956 to 0.000220956
Heightened Def Con from 0.00022108 ++++++to 0.00022108
Heightened Def Con from 0.00022108 to 0.00022108
Heightened Def Con from 0.00022108 to 0.00022108
Heightened Def Con from 0.000221156 to 0.000221156
Heightened Def Con from 0.000221756 to 0.000221756
Heightened Def Con from 0.000222282 to 0.000222282
Heightened Def Con from 0.000222955 to 0.000222955
Heightened Def Con from 0.000222955 +++to 0.000222955
Heightened Def Con from 0.000222955 to 0.000222955
Heightened Def Con from 0.000223284 +++++++to 0.000223284
Heightened Def Con from 0.000223284 ++++++++to 0.000223284
Heightened Def Con from 0.000223284 to 0.000223284
Heightened Def Con from 0.000223711 to 0.000223711
Heightened Def Con from 0.000223885 to 0.000223885
Heightened Def Con from 0.000223885 to 0.000223885
Heightened Def Con from 0.000224117 to 0.000224117
Heightened Def Con from 0.000224286 to 0.000224286
Heightened Def Con from 0.000224486 to 0.000224486
Heightened Def Con from 0.000224486 +++to 0.000224486
Heightened Def Con from 0.000224486 to 0.000224486
Heightened Def Con from 0.000224511 to 0.000224511
Heightened Def Con from 0.000224687 ++++++to 0.000224687
Heightened Def Con from 0.000224687 to 0.000224687
Heightened Def Con from 0.000224755 ++to 0.000224755
Heightened Def Con from 0.00022492 +to 0.00022492
Heightened Def Con from 0.00022492 to 0.00022492
Heightened Def Con from 0.00022492 ++++to 0.00022492
Heightened Def Con from 0.000225355 to 0.000225355
Heightened Def Con from 0.000225755 to 0.000225755
Heightened Def Con from 0.000225755 to 0.000225755
Heightened Def Con from 0.000225913 +++to 0.000225913
Heightened Def Con from 0.000225913 +to 0.000225913
Heightened Def Con from 0.000225913 +++to 0.000225913
Heightened Def Con from 0.000226124 to 0.000226124
Heightened Def Con from 0.000226314 to 0.000226314
Heightened Def Con from 0.000226325 to 0.000226325
Heightened Def Con from 0.000226556 to 0.000226556
Heightened Def Con from 0.000226715 +++++to 0.000226715
Heightened Def Con from 0.000226715 to 0.000226715
Heightened Def Con from 0.000226756 to 0.000226756
Heightened Def Con from 0.000226756 to 0.000226756
Heightened Def Con from 0.000227316 to 0.000227316
Heightened Def Con from 0.000227357 +++to 0.000227357
Heightened Def Con from 0.000227357 +to 0.000227357
Heightened Def Con from 0.000227729 to 0.000227729
Heightened Def Con from 0.000227757 ++to 0.000227757
Heightened Def Con from 0.000227757 +++to 0.000227757
Heightened Def Con from 0.000227757 to 0.000227757
Heightened Def Con from 0.000228294 ++++++to 0.000228294
Heightened Def Con from 0.000228294 ++++++to 0.000228294
Heightened Def Con from 0.000228294 +to 0.000228294
Heightened Def Con from 0.000228294 to 0.000228294
Heightened Def Con from 0.000228294 to 0.000228294
Heightened Def Con from 0.00022833 to 0.00022833
Heightened Def Con from 0.000228358 to 0.000228358
Heightened Def Con from 0.000228358 to 0.000228358
Heightened Def Con from 0.000228518 to 0.000228518
Heightened Def Con from 0.000228518 to 0.000228518
Heightened Def Con from 0.000228518 to 0.000228518
Heightened Def Con from 0.000228531 to 0.000228531
Heightened Def Con from 0.000228531 to 0.000228531
Heightened Def Con from 0.000228531 to 0.000228531
Heightened Def Con from 0.000228531 to 0.000228531
Heightened Def Con from 0.000228895 +to 0.000228895
Heightened Def Con from 0.000228895 +++++++to 0.000228895
Heightened Def Con from 0.000228895 ++++++to 0.000228895
Heightened Def Con from 0.000228895 +to 0.000228895
Heightened Def Con from 0.000228895 to 0.000228895
[...]
Heightened Def Con from 0.000401705 ++++to 0.000401705
Heightened Def Con from 0.000401705 +++++++to 0.000401705
Heightened Def Con from 0.000401839 +++to 0.000401839
Heightened Def Con from 0.000401905 to 0.000401905
Heightened Def Con from 0.000401905 ++++++to 0.000401905
Heightened Def Con from 0.000401905 to 0.000401905
Heightened Def Con from 0.000401948 to 0.000401948
Heightened Def Con from 0.000402042 to 0.000402042
Heightened Def Con from 0.000402129 to 0.000402129
Heightened Def Con from 0.000402306 ++to 0.000402306
Heightened Def Con from 0.000402306 ++++to 0.000402306
Heightened Def Con from 0.000402306 to 0.000402306
Heightened Def Con from 0.000402438 to 0.000402438
Heightened Def Con from 0.000402438 +++to 0.000402438
Heightened Def Con from 0.00040273 +to 0.00040273
Heightened Def Con from 0.00040273 to 0.00040273
Heightened Def Con from 0.00040273 +to 0.00040273
Heightened Def Con from 0.00040273 to 0.00040273
Heightened Def Con from 0.00040273 to 0.00040273
Heightened Def Con from 0.00040275 to 0.00040275
Heightened Def Con from 0.00040275 ++++to 0.00040275
Heightened Def Con from 0.00040275 to 0.00040275
Heightened Def Con from 0.000402837 +++++to 0.000402837
Heightened Def Con from 0.000402843 to 0.000402843
Heightened Def Con from 0.000403037 to 0.000403037
Heightened Def Con from 0.000403037 ++++to 0.000403037
Heightened Def Con from 0.000403443 to 0.000403443
Heightened Def Con from 0.000403443 to 0.000403443
Heightened Def Con from 0.000403443 to 0.000403443
Heightened Def Con from 0.000403443 to 0.000403443
Heightened Def Con from 0.000403443 to 0.000403443
Heightened Def Con from 0.000403443 +++++to 0.000403443
Heightened Def Con from 0.000403443 to 0.000403443
Heightened Def Con from 0.000403508 to 0.000403508
Heightened Def Con from 0.000403643 to 0.000403643
Heightened Def Con from 0.000403843 to 0.000403843
Heightened Def Con from 0.000404108 to 0.000404108
Heightened Def Con from 0.000404155 ++++to 0.000404155
Heightened Def Con from 0.000404243 to 0.000404243
Heightened Def Con from 0.000404243 to 0.000404243
Heightened Def Con from 0.000404243 ++++to 0.000404243
Heightened Def Con from 0.000404309 +++++to 0.000404309
Heightened Def Con from 0.000404309 +++++to 0.000404309
Heightened Def Con from 0.000404509 ++++++to 0.000404509
Heightened Def Con from 0.00040511 to 0.00040511
Heightened Def Con from 0.00040511 +to 0.00040511
Heightened Def Con from 0.000405333 to 0.000405333
Heightened Def Con from 0.000405333 to 0.000405333
Heightened Def Con from 0.000405333 ++++++to 0.000405333
Heightened Def Con from 0.000405443 +to 0.000405443
Heightened Def Con from 0.000405443 to 0.000405443
Heightened Def Con from 0.000405643 to 0.000405643
Heightened Def Con from 0.000405734 ++++to 0.000405734
Heightened Def Con from 0.000405934 to 0.000405934
Heightened Def Con from 0.000406243 to 0.000406243
Heightened Def Con from 0.000406443 to 0.000406443
Heightened Def Con from 0.000406443 to 0.000406443
Heightened Def Con from 0.000406443 to 0.000406443
Heightened Def Con from 0.000406511 to 0.000406511
Heightened Def Con from 0.000406511 to 0.000406511
Heightened Def Con from 0.000406511 to 0.000406511
Heightened Def Con from 0.000407043 +++++to 0.000407043
Heightened Def Con from 0.000407043 to 0.000407043
Heightened Def Con from 0.000407136 ++++++to 0.000407136
Heightened Def Con from 0.000407136 to 0.000407136
Heightened Def Con from 0.000407643 to 0.000407643
Heightened Def Con from 0.000407643 to 0.000407643
Heightened Def Con from 0.000408443 to 0.000408443
Heightened Def Con from 0.000408443 to 0.000408443
Heightened Def Con from 0.000408443 to 0.000408443
Heightened Def Con from 0.000408843 to 0.000408843
Heightened Def Con from 0.00040903 to 0.00040903
Heightened Def Con from 0.00040923 to 0.00040923
Heightened Def Con from 0.00040923 to 0.00040923
Heightened Def Con from 0.00040923 to 0.00040923
Heightened Def Con from 0.000409243 to 0.000409243
Heightened Def Con from 0.000409243 ++++to 0.000409243
Heightened Def Con from 0.000409243 to 0.000409243
Heightened Def Con from 0.000409314 ++++++to 0.000409314
Heightened Def Con from 0.000409314 ++++++to 0.000409314
Heightened Def Con from 0.000409714 ++++++to 0.000409714
Heightened Def Con from 0.000409714 to 0.000409714
Heightened Def Con from 0.000409914 ++++++++to 0.000409914
Heightened Def Con from 0.000409914 +++++to 0.000409914
Heightened Def Con from 0.000409914 to 0.000409914
Heightened Def Con from 0.000409914 +++++++to 0.000409914
Heightened Def Con from 0.000409914 to 0.000409914
Heightened Def Con from 0.000409914 +++++to 0.000409914
Heightened Def Con from 0.000409914 +++++to 0.000409914
Heightened Def Con from 0.000409914 +++++++to 0.000409914
Heightened Def Con from 0.000409914 +++++++++to 0.000409914
Heightened Def Con from 0.000409914 +to 0.000409914
Heightened Def Con from 0.000409914 to 0.000409914
Heightened Def Con from 0.00041014 to 0.00041014
Heightened Def Con from 0.000410315 to 0.000410315
Heightened Def Con from 0.000410315 to 0.000410315
Heightened Def Con from 0.000410315 to 0.000410315
Heightened Def Con from 0.000410643 to 0.000410643
Heightened Def Con from 0.000410643 +++++to 0.000410643
Heightened Def Con from 0.000410843 to 0.000410843
Heightened Def Con from 0.000410843 to 0.000410843
Heightened Def Con from 0.000410843 to 0.000410843
Heightened Def Con from 0.000410843 ++to 0.000410843
Heightened Def Con from 0.000410843 to 0.000410843
Heightened Def Con from 0.000411028 to 0.000411028
Heightened Def Con from 0.000411115 +++++to 0.000411115
Heightened Def Con from 0.000411115 +++to 0.000411115
Heightened Def Con from 0.000411115 to 0.000411115
Heightened Def Con from 0.000411141 to 0.000411141
Heightened Def Con from 0.000411141 to 0.000411141
Heightened Def Con from 0.000411227 +to 0.000411227
Heightened Def Con from 0.000411227 +++++to 0.000411227
Heightened Def Con from 0.000411315 to 0.000411315
Heightened Def Con from 0.000411315 to 0.000411315
Heightened Def Con from 0.000411742 +++to 0.000411742
Heightened Def Con from 0.000411742 to 0.000411742
Heightened Def Con from 0.000411827 to 0.000411827
Heightened Def Con from 0.000412027 to 0.000412027
Heightened Def Con from 0.000412027 to 0.000412027
Heightened Def Con from 0.000412027 to 0.000412027
Heightened Def Con from 0.000412516 to 0.000412516
Heightened Def Con from 0.000412516 to 0.000412516
Heightened Def Con from 0.000412744 to 0.000412744
Heightened Def Con from 0.000412744 to 0.000412744
Heightened Def Con from 0.000412917 to 0.000412917
Heightened Def Con from 0.000413043 +to 0.000413043
Heightened Def Con from 0.000413043 to 0.000413043
Heightened Def Con from 0.000413243 to 0.000413243
Heightened Def Con from 0.000413344 to 0.000413344
Heightened Def Con from 0.000413625 to 0.000413625
Heightened Def Con from 0.000413945 to 0.000413945
Heightened Def Con from 0.000414117 to 0.000414117
Heightened Def Con from 0.000414345 to 0.000414345
Heightened Def Con from 0.000414425 ++++to 0.000414425
Heightened Def Con from 0.000414425 ++++to 0.000414425
Heightened Def Con from 0.000414425 to 0.000414425
Heightened Def Con from 0.000414425 to 0.000414425
Heightened Def Con from 0.000414546 to 0.000414546
Heightened Def Con from 0.000414918 to 0.000414918
Heightened Def Con from 0.000415043 to 0.000415043
Heightened Def Con from 0.000415043 to 0.000415043
Heightened Def Con from 0.000415346 to 0.000415346
Heightened Def Con from 0.000415346 to 0.000415346
Heightened Def Con from 0.000415844 to 0.000415844
Heightened Def Con from 0.000416244 to 0.000416244
Heightened Def Con from 0.000416244 to 0.000416244
Heightened Def Con from 0.000416546 +++to 0.000416546
Heightened Def Con from 0.000416747 to 0.000416747
Heightened Def Con from 0.000416825 ++++to 0.000416825
Heightened Def Con from 0.000416825 to 0.000416825
Heightened Def Con from 0.000416844 to 0.000416844
Heightened Def Con from 0.000416844 to 0.000416844
Heightened Def Con from 0.000416844 ++to 0.000416844
Heightened Def Con from 0.000416844 to 0.000416844
Heightened Def Con from 0.000416919 to 0.000416919
Heightened Def Con from 0.000416919 to 0.000416919
Heightened Def Con from 0.000417425 to 0.000417425
Heightened Def Con from 0.000417625 to 0.000417625
Heightened Def Con from 0.000417625 to 0.000417625
Heightened Def Con from 0.000417625 +to 0.000417625
Heightened Def Con from 0.000418045 to 0.000418045
Heightened Def Con from 0.00041832 +to 0.00041832
Heightened Def Con from 0.00041832 to 0.00041832
Heightened Def Con from 0.000418347 to 0.000418347
Heightened Def Con from 0.000418645 to 0.000418645
Heightened Def Con from 0.000418747 to 0.000418747
Heightened Def Con from 0.000418826 to 0.000418826
Heightened Def Con from 0.000418947 to 0.000418947
Heightened Def Con from 0.000419226 to 0.000419226
Heightened Def Con from 0.000419226 to 0.000419226
Heightened Def Con from 0.000419226 to 0.000419226
Heightened Def Con from 0.000419226 to 0.000419226
Heightened Def Con from 0.00041952 to 0.00041952
Heightened Def Con from 0.00041952 +to 0.00041952
Heightened Def Con from 0.00041952 +++++++to 0.00041952
Heightened Def Con from 0.00041952 to 0.00041952
Heightened Def Con from 0.000419547 ++++to 0.000419547
Heightened Def Con from 0.000420147 to 0.000420147
Heightened Def Con from 0.000420147 to 0.000420147
Heightened Def Con from 0.000420147 to 0.000420147
Heightened Def Con from 0.000420348 to 0.000420348
Heightened Def Con from 0.000420548 to 0.000420548
Heightened Def Con from 0.000420647 to 0.000420647
Heightened Def Con from 0.000420948 to 0.000420948
Heightened Def Con from 0.000421047 to 0.000421047
Heightened Def Con from 0.000421147 to 0.000421147
Heightened Def Con from 0.000421147 to 0.000421147
Heightened Def Con from 0.000421521 to 0.000421521
Heightened Def Con from 0.000421548 to 0.000421548
Heightened Def Con from 0.000421827 to 0.000421827
Heightened Def Con from 0.000421847 to 0.000421847
Heightened Def Con from 0.000421847 to 0.000421847
Heightened Def Con from 0.000421847 ++to 0.000421847
Heightened Def Con from 0.000421847 +++++to 0.000421847
Heightened Def Con from 0.000421847 to 0.000421847
Heightened Def Con from 0.000422048 +++to 0.000422048
Heightened Def Con from 0.000422048 to 0.000422048
Heightened Def Con from 0.000422227 to 0.000422227
Heightened Def Con from 0.000422428 +++++to 0.000422428
Heightened Def Con from 0.000422428 +to 0.000422428
Heightened Def Con from 0.000422521 to 0.000422521
Heightened Def Con from 0.000422628 +++++to 0.000422628
Heightened Def Con from 0.000422783 to 0.000422783
Heightened Def Con from 0.000422783 to 0.000422783
Heightened Def Con from 0.000423028 to 0.000423028
Heightened Def Con from 0.000423028 to 0.000423028
Heightened Def Con from 0.000423028 +++++to 0.000423028
Heightened Def Con from 0.000423028 +++++to 0.000423028
Heightened Def Con from 0.000423028 to 0.000423028
Heightened Def Con from 0.000423121 to 0.000423121
Heightened Def Con from 0.000423348 ++to 0.000423348
Heightened Def Con from 0.000423348 to 0.000423348
Heightened Def Con from 0.000424049 to 0.000424049
Heightened Def Con from 0.000424121 to 0.000424121
Heightened Def Con from 0.000424121 to 0.000424121
Heightened Def Con from 0.000424249 to 0.000424249
Heightened Def Con from 0.000424386 to 0.000424386
Heightened Def Con from 0.000424386 ++++to 0.000424386
Heightened Def Con from 0.000424429 to 0.000424429
Heightened Def Con from 0.000424429 to 0.000424429
Heightened Def Con from 0.000424721 to 0.000424721
Heightened Def Con from 0.000424721 to 0.000424721
Heightened Def Con from 0.000424829 ++++++to 0.000424829
Heightened Def Con from 0.000424949 to 0.000424949
Heightened Def Con from 0.000425187 to 0.000425187
Heightened Def Con from 0.000425187 to 0.000425187
Heightened Def Con from 0.000425429 to 0.000425429
Heightened Def Con from 0.000425429 to 0.000425429
Heightened Def Con from 0.000425522 ++to 0.000425522
Heightened Def Con from 0.000425522 ++++to 0.000425522
Heightened Def Con from 0.000425522 to 0.000425522
Heightened Def Con from 0.000425579 ++to 0.000425579
Heightened Def Con from 0.000425579 to 0.000425579
Heightened Def Con from 0.00042565 to 0.00042565
Heightened Def Con from 0.00042585 ++++to 0.00042585
Heightened Def Con from 0.00042585 to 0.00042585
Heightened Def Con from 0.000425978 to 0.000425978
Heightened Def Con from 0.000426522 to 0.000426522
Heightened Def Con from 0.000426522 to 0.000426522
Heightened Def Con from 0.000426522 to 0.000426522
Heightened Def Con from 0.000426589 to 0.000426589
Heightened Def Con from 0.00042663 to 0.00042663
Heightened Def Con from 0.000426651 to 0.000426651
Heightened Def Con from 0.000426651 to 0.000426651
Heightened Def Con from 0.000426651 to 0.000426651
Heightened Def Con from 0.000426851 to 0.000426851
Heightened Def Con from 0.000426851 to 0.000426851
Heightened Def Con from 0.000426948 to 0.000426948
Heightened Def Con from 0.000427051 to 0.000427051
Heightened Def Con from 0.000427051 to 0.000427051
Heightened Def Con from 0.000427522 to 0.000427522
Heightened Def Con from 0.000427522 to 0.000427522
Heightened Def Con from 0.000427591 to 0.000427591
Heightened Def Con from 0.000427949 to 0.000427949
Heightened Def Con from 0.000427949 ++++to 0.000427949
Heightened Def Con from 0.000427992 to 0.000427992
Heightened Def Con from 0.000427992 to 0.000427992
Heightened Def Con from 0.000428052 to 0.000428052
Heightened Def Con from 0.000428149 to 0.000428149
Heightened Def Con from 0.000428231 to 0.000428231
Heightened Def Con from 0.000428431 to 0.000428431
Heightened Def Con from 0.000428431 to 0.000428431
Heightened Def Con from 0.000428431 to 0.000428431
Heightened Def Con from 0.000428549 ++to 0.000428549
Heightened Def Con from 0.000428722 to 0.000428722
Heightened Def Con from 0.000429253 to 0.000429253
Heightened Def Con from 0.000429431 to 0.000429431
Heightened Def Con from 0.000429431 to 0.000429431
Heightened Def Con from 0.000429549 to 0.000429549
Heightened Def Con from 0.000429549 to 0.000429549
Heightened Def Con from 0.000429575 to 0.000429575
Heightened Def Con from 0.000429632 ++++to 0.000429632
Heightened Def Con from 0.000429749 to 0.000429749
Heightened Def Con from 0.000429749 to 0.000429749
Heightened Def Con from 0.000429853 to 0.000429853
Heightened Def Con from 0.000429922 ++to 0.000429922
Heightened Def Con from 0.000429922 to 0.000429922
Heightened Def Con from 0.000429949 to 0.000429949
Heightened Def Con from 0.000429949 to 0.000429949
Heightened Def Con from 0.000430522 +++++to 0.000430522
Heightened Def Con from 0.000430595 +++++to 0.000430595
Heightened Def Con from 0.000430773 to 0.000430773
Heightened Def Con from 0.000430949 to 0.000430949
Heightened Def Con from 0.000430949 to 0.000430949
Heightened Def Con from 0.000430949 to 0.000430949
Heightened Def Con from 0.000431054 to 0.000431054
Heightened Def Con from 0.000431054 to 0.000431054
Heightened Def Con from 0.000431054 to 0.000431054
Heightened Def Con from 0.000431349 to 0.000431349
Heightened Def Con from 0.000431373 to 0.000431373
Heightened Def Con from 0.000431433 to 0.000431433
Heightened Def Con from 0.000431797 +++++to 0.000431797
Heightened Def Con from 0.000432122 ++to 0.000432122
Heightened Def Con from 0.000432122 to 0.000432122
Heightened Def Con from 0.000432322 to 0.000432322
Heightened Def Con from 0.000432372 to 0.000432372
Heightened Def Con from 0.000432455 to 0.000432455
Heightened Def Con from 0.000432455 to 0.000432455
Heightened Def Con from 0.000432549 to 0.000432549
Heightened Def Con from 0.000432655 to 0.000432655
Heightened Def Con from 0.000432856 to 0.000432856
Heightened Def Con from 0.000433256 to 0.000433256
Heightened Def Con from 0.000433549 to 0.000433549
Heightened Def Con from 0.000433599 ++to 0.000433599
Heightened Def Con from 0.000433949 to 0.000433949
Heightened Def Con from 0.000434034 to 0.000434034
Heightened Def Con from 0.000434121 ++++++to 0.000434121
Heightened Def Con from 0.0004344 to 0.0004344
Heightened Def Con from 0.000434434 to 0.000434434
Heightened Def Con from 0.000434457 to 0.000434457
Heightened Def Con from 0.00043477 to 0.00043477
Heightened Def Con from 0.00043477 to 0.00043477
Heightened Def Con from 0.00043477 to 0.00043477
Heightened Def Con from 0.000434969 to 0.000434969
Heightened Def Con from 0.000434969 to 0.000434969
Heightened Def Con from 0.000435057 to 0.000435057
Heightened Def Con from 0.000435057 to 0.000435057
Heightened Def Con from 0.000435121 to 0.000435121
Heightened Def Con from 0.000435169 to 0.000435169
Heightened Def Con from 0.000435201 to 0.000435201
Heightened Def Con from 0.000435201 to 0.000435201
Heightened Def Con from 0.000435201 +++to 0.000435201
Heightened Def Con from 0.000435201 to 0.000435201
Heightened Def Con from 0.000435235 to 0.000435235
Heightened Def Con from 0.000435235 to 0.000435235
Heightened Def Con from 0.000435369 to 0.000435369
Heightened Def Con from 0.000435369 +to 0.000435369
Heightened Def Con from 0.000435457 to 0.000435457
Heightened Def Con from 0.000435521 ++++++to 0.000435521
Heightened Def Con from 0.000435521 +to 0.000435521
Heightened Def Con from 0.000435521 to 0.000435521
Heightened Def Con from 0.000435521 to 0.000435521
Heightened Def Con from 0.000435569 to 0.000435569
Heightened Def Con from 0.000435601 ++++to 0.000435601
Heightened Def Con from 0.000435601 to 0.000435601
Heightened Def Con from 0.000435635 to 0.000435635
Heightened Def Con from 0.000435657 to 0.000435657
Heightened Def Con from 0.000435657 to 0.000435657
Heightened Def Con from 0.000435749 to 0.000435749
Heightened Def Con from 0.000435802 ++++to 0.000435802
Heightened Def Con from 0.000435802 to 0.000435802
Heightened Def Con from 0.000435949 +to 0.000435949
Heightened Def Con from 0.000435949 to 0.000435949
Heightened Def Con from 0.000436002 to 0.000436002
Heightened Def Con from 0.000436002 to 0.000436002
Heightened Def Con from 0.000436058 to 0.000436058
Heightened Def Con from 0.000436149 to 0.000436149
Heightened Def Con from 0.000436435 to 0.000436435
Heightened Def Con from 0.000436602 to 0.000436602
Heightened Def Con from 0.000436967 to 0.000436967
Heightened Def Con from 0.000437149 to 0.000437149
Heightened Def Con from 0.000437149 to 0.000437149
Heightened Def Con from 0.000437349 to 0.000437349
Heightened Def Con from 0.000437349 to 0.000437349
Heightened Def Con from 0.000437567 to 0.000437567
Heightened Def Con from 0.000437749 to 0.000437749
Heightened Def Con from 0.000437749 to 0.000437749
Heightened Def Con from 0.000437749 to 0.000437749
Heightened Def Con from 0.000437836 to 0.000437836
Heightened Def Con from 0.000437859 to 0.000437859
Heightened Def Con from 0.000437859 to 0.000437859
Heightened Def Con from 0.000437921 to 0.000437921
Heightened Def Con from 0.000437921 to 0.000437921
Heightened Def Con from 0.000437921 to 0.000437921
Heightened Def Con from 0.000437949 +++to 0.000437949
Heightened Def Con from 0.000438121 +++++to 0.000438121
Heightened Def Con from 0.000438121 to 0.000438121
Heightened Def Con from 0.000438121 to 0.000438121
Heightened Def Con from 0.000438404 to 0.000438404
Heightened Def Con from 0.000438404 to 0.000438404
Heightened Def Con from 0.00043852 to 0.00043852
Heightened Def Con from 0.00043852 to 0.00043852
Heightened Def Con from 0.000438636 +++to 0.000438636
Heightened Def Con from 0.000438766 to 0.000438766
Heightened Def Con from 0.000438836 to 0.000438836
Heightened Def Con from 0.000439005 to 0.000439005
Heightened Def Con from 0.000439259 ++to 0.000439259
Heightened Def Con from 0.000439259 to 0.000439259
Heightened Def Con from 0.000439315 to 0.000439315

Date: Fri Mar 27 20:58:02 2020
Total elapsed time: 16.484 seconds.

tnom = 27
temp = 27
method = modified trap
totiter = 2635865
traniter = 2626885
tranpoints = 465771
accept = 299286
rejected = 172282
matrix size = 63
fillins = 191
solver = Normal
Matrix Compiler1: 16.99 KB object code size  2.0/1.1/[0.5]
Matrix Compiler2: 8.63 KB object code size  0.9/1.2/[0.4]

