Circuit: * Z:\media\salim\home2\salim\KiCad\AM_FM_Transceiver\Test_AM_Tansceiver.asc

Direct Newton iteration failed to find .op point.  (Use ".option noopiter" to skip.)
Starting Gmin stepping
Gmin = 10
Gmin = 1.07374
vernier = 0.5
vernier = 0.25
vernier = 0.125
vernier = 0.0625
Gmin = 1.13883
vernier = 0.03125
vernier = 0.015625
vernier = 0.0208333
Gmin = 1.1053
vernier = 0.0277778
vernier = 0.0138889
vernier = 0.00694444
Gmin = 1.07695
vernier = 0.00925925
vernier = 0.0123457
Gmin = 1.05193
vernier = 0.00617283
vernier = 0.00308642
vernier = 0.00411522
Gmin = 1.04358
vernier = 0.00548696
Gmin = 1.03114
vernier = 0.00274348
vernier = 0.00137174
vernier = 0.00182899
Gmin = 1.02937
vernier = 0.00243865
vernier = 0.00325153
Gmin = 1.02338
vernier = 0.00162576
vernier = 0.000812882
vernier = 0.00108384
Gmin = 1.02234
vernier = 0.00144512
vernier = 0.00192683
Gmin = 1.01881
vernier = 0.000963415
vernier = 0.000481708
vernier = 0.000642277
Gmin = 1.01819
vernier = 0.000856369
vernier = 0.00114182
Gmin = 1.01611
vernier = 0.000570912
vernier = 0.000428184
Gmin = 1.01462
vernier = 0.000570912
vernier = 0.000761216
Gmin = 1.01315
vernier = 0.00101495
vernier = 0.000507477
Gmin = 0
Gmin stepping failed

Starting source stepping with srcstepmethod=0
Source Step = 3.0303%
Source Step = 33.3333%
Source Step = 63.6364%
Source Step = 93.9394%
Source stepping succeeded in finding the operating point.

Heightened Def Con from 4.96415e-05 to 4.96415e-05
Heightened Def Con from 4.974e-05 to 4.974e-05
Heightened Def Con from 4.974e-05 to 4.974e-05
Heightened Def Con from 4.974e-05 +to 4.974e-05
Heightened Def Con from 4.974e-05 to 4.974e-05
Heightened Def Con from 5.05893e-05 to 5.05893e-05
Heightened Def Con from 5.11847e-05 to 5.11847e-05
Heightened Def Con from 5.23356e-05 ++to 5.23356e-05
Heightened Def Con from 5.27283e-05 +to 5.27283e-05
Heightened Def Con from 5.91428e-05 to 5.91428e-05
Heightened Def Con from 5.91428e-05 to 5.91428e-05
Heightened Def Con from 6.11266e-05 to 6.11267e-05
Heightened Def Con from 6.23436e-05 to 6.23436e-05
Heightened Def Con from 6.40892e-05 to 6.40893e-05
Heightened Def Con from 6.45033e-05 to 6.45033e-05
Heightened Def Con from 6.51338e-05 to 6.51338e-05
Heightened Def Con from 6.66807e-05 +to 6.66807e-05
Heightened Def Con from 6.66807e-05 to 6.66807e-05
Heightened Def Con from 6.72282e-05 to 6.72282e-05
Heightened Def Con from 6.76691e-05 +to 6.76691e-05
Heightened Def Con from 6.76691e-05 to 6.76691e-05
Heightened Def Con from 6.84378e-05 to 6.84378e-05
Heightened Def Con from 7.0445e-05 to 7.0445e-05
Heightened Def Con from 7.0445e-05 to 7.04451e-05
Heightened Def Con from 7.08552e-05 to 7.08552e-05
Heightened Def Con from 7.14537e-05 to 7.14537e-05
Heightened Def Con from 7.14537e-05 to 7.14537e-05
Heightened Def Con from 8.1827e-05 +to 8.1827e-05
Heightened Def Con from 8.1827e-05 to 8.1827e-05
Heightened Def Con from 8.26794e-05 to 8.26794e-05
Heightened Def Con from 0.000150844 to 0.000150844
Heightened Def Con from 0.000150938 to 0.000150938
Heightened Def Con from 0.000151135 to 0.000151135
Heightened Def Con from 0.000151334 to 0.000151334
Heightened Def Con from 0.000151334 to 0.000151334
Heightened Def Con from 0.000151934 to 0.000151934
Heightened Def Con from 0.000151934 to 0.000151934
Heightened Def Con from 0.000164516 to 0.000164516
Heightened Def Con from 0.000165134 to 0.000165134
Heightened Def Con from 0.000165535 to 0.000165535
Heightened Def Con from 0.000166136 to 0.000166136
Heightened Def Con from 0.000166738 to 0.000166738
Heightened Def Con from 0.000166808 to 0.000166808
Heightened Def Con from 0.000167405 to 0.000167405
Heightened Def Con from 0.000167405 to 0.000167405
Heightened Def Con from 0.000167405 to 0.000167405
Heightened Def Con from 0.000167603 to 0.000167603
Heightened Def Con from 0.000168663 to 0.000168663
Heightened Def Con from 0.000170043 to 0.000170043
Heightened Def Con from 0.000170043 to 0.000170043
Heightened Def Con from 0.000170244 to 0.000170244
Heightened Def Con from 0.000170257 to 0.000170257
Heightened Def Con from 0.000170257 to 0.000170257
Heightened Def Con from 0.000186095 to 0.000186095
Heightened Def Con from 0.000187127 to 0.000187127
Heightened Def Con from 0.000187127 ++to 0.000187127
Heightened Def Con from 0.000250757 to 0.000250757
Heightened Def Con from 0.000251039 +to 0.000251039
Heightened Def Con from 0.000251039 to 0.000251039
Heightened Def Con from 0.000251138 to 0.000251138
Heightened Def Con from 0.000251138 to 0.000251138
Heightened Def Con from 0.000251138 to 0.000251138
Heightened Def Con from 0.000251715 to 0.000251715
Heightened Def Con from 0.000251734 to 0.000251734
Heightened Def Con from 0.000258929 to 0.000258929
Heightened Def Con from 0.000258941 to 0.000258941
Heightened Def Con from 0.000258941 to 0.000258941
Heightened Def Con from 0.000260814 to 0.000260814
Heightened Def Con from 0.000260814 to 0.000260814
Heightened Def Con from 0.000260814 to 0.000260814
Heightened Def Con from 0.000262339 to 0.000262339
Heightened Def Con from 0.000262339 to 0.000262339
Heightened Def Con from 0.000262339 to 0.000262339
Heightened Def Con from 0.000263718 to 0.000263718
Heightened Def Con from 0.000264272 to 0.000264272
Heightened Def Con from 0.000264342 to 0.000264342
Heightened Def Con from 0.000265134 to 0.000265134
Heightened Def Con from 0.000266878 to 0.000266878
Heightened Def Con from 0.000267007 to 0.000267007
Heightened Def Con from 0.000267076 to 0.000267076
Heightened Def Con from 0.000267405 to 0.000267405
Heightened Def Con from 0.000267405 to 0.000267405
Heightened Def Con from 0.000267603 to 0.000267604
Heightened Def Con from 0.000269858 to 0.000269858
Heightened Def Con from 0.000269858 to 0.000269858
Heightened Def Con from 0.000285709 to 0.000285709
Heightened Def Con from 0.000289709 to 0.000289709
Heightened Def Con from 0.000350544 ++to 0.000350544
Heightened Def Con from 0.000350544 to 0.000350544
Heightened Def Con from 0.000350804 to 0.000350804
Heightened Def Con from 0.000350804 to 0.000350804
Heightened Def Con from 0.000351305 to 0.000351305
Heightened Def Con from 0.000351715 to 0.000351715
Heightened Def Con from 0.000351715 to 0.000351715
Heightened Def Con from 0.00035192 to 0.00035192
Heightened Def Con from 0.00035192 to 0.00035192
Heightened Def Con from 0.000352125 to 0.000352125
Heightened Def Con from 0.000358597 to 0.000358597
Heightened Def Con from 0.000358742 to 0.000358742
Heightened Def Con from 0.000363548 to 0.000363548
Heightened Def Con from 0.000366135 to 0.000366135
Heightened Def Con from 0.000366135 to 0.000366135
Heightened Def Con from 0.000366289 to 0.000366289
Heightened Def Con from 0.000367343 to 0.000367343
Heightened Def Con from 0.000367604 to 0.000367604
Heightened Def Con from 0.000368438 to 0.000368438
Heightened Def Con from 0.000368663 to 0.000368663
Heightened Def Con from 0.00036884 +to 0.00036884
Heightened Def Con from 0.000370044 to 0.000370044
Heightened Def Con from 0.000381854 +to 0.000381854
Heightened Def Con from 0.000381854 to 0.000381854
Heightened Def Con from 0.000382687 to 0.000382687
Heightened Def Con from 0.000382687 to 0.000382687
Heightened Def Con from 0.000382705 to 0.000382705
Heightened Def Con from 0.00038616 to 0.00038616
Heightened Def Con from 0.000387457 ++to 0.000387457
Heightened Def Con from 0.000448542 to 0.000448542
Heightened Def Con from 0.000448586 +to 0.000448586
Heightened Def Con from 0.000448936 +to 0.000448936
Heightened Def Con from 0.000448936 +to 0.000448936
Heightened Def Con from 0.000448992 ++to 0.000448992
Heightened Def Con from 0.000451534 to 0.000451534
Heightened Def Con from 0.000458743 to 0.000458743
Heightened Def Con from 0.000458743 to 0.000458743
Heightened Def Con from 0.000458941 to 0.000458941
Heightened Def Con from 0.000458941 to 0.000458941
Heightened Def Con from 0.000462092 +to 0.000462092
Heightened Def Con from 0.000464536 +++to 0.000464536
Heightened Def Con from 0.000465335 to 0.000465335
Heightened Def Con from 0.000466336 to 0.000466336
Heightened Def Con from 0.000466737 to 0.000466737
Heightened Def Con from 0.000466737 to 0.000466737
Heightened Def Con from 0.000466737 to 0.000466737
Heightened Def Con from 0.000466737 to 0.000466737
Heightened Def Con from 0.000466938 to 0.000466938
Heightened Def Con from 0.000467007 to 0.000467007
Heightened Def Con from 0.000467669 to 0.000467669
Heightened Def Con from 0.000467669 to 0.000467669
Heightened Def Con from 0.000467669 to 0.000467669
Heightened Def Con from 0.000467669 to 0.000467669
Heightened Def Con from 0.000468437 to 0.000468437
Heightened Def Con from 0.000469061 to 0.000469061
Heightened Def Con from 0.000469659 to 0.000469659
Heightened Def Con from 0.000470656 to 0.000470656
Heightened Def Con from 0.000486085 to 0.000486085
Heightened Def Con from 0.000486095 to 0.000486095
Heightened Def Con from 0.000486095 to 0.000486095
Heightened Def Con from 0.000487129 to 0.000487129
Heightened Def Con from 0.000488491 +to 0.000488491
Heightened Def Con from 0.000489821 to 0.000489821
Heightened Def Con from 0.000548939 to 0.000548939
Heightened Def Con from 0.000548939 to 0.000548939
Heightened Def Con from 0.000549141 to 0.000549141
Heightened Def Con from 0.000550845 to 0.000550845
Heightened Def Con from 0.000550845 to 0.000550845
Heightened Def Con from 0.000551091 +to 0.000551091
Heightened Def Con from 0.000551135 to 0.000551135
Heightened Def Con from 0.000551135 +to 0.000551135
Heightened Def Con from 0.000551334 to 0.000551334
Heightened Def Con from 0.000551514 to 0.000551514
Heightened Def Con from 0.000551514 to 0.000551514
Heightened Def Con from 0.000551534 to 0.000551534
Heightened Def Con from 0.000558708 to 0.000558708
Heightened Def Con from 0.000565534 to 0.000565534
Heightened Def Con from 0.000565899 to 0.000565899
Heightened Def Con from 0.000566094 to 0.000566094
Heightened Def Con from 0.000566808 +to 0.000566808
Heightened Def Con from 0.000567227 to 0.000567227
Heightened Def Con from 0.000567274 to 0.000567274
Heightened Def Con from 0.000567274 to 0.000567274
Heightened Def Con from 0.000568464 to 0.000568464
Heightened Def Con from 0.000568464 to 0.000568464
Heightened Def Con from 0.00056904 to 0.00056904
Heightened Def Con from 0.000570044 to 0.000570044
Heightened Def Con from 0.000570656 to 0.000570656
Heightened Def Con from 0.000584627 to 0.000584627
Heightened Def Con from 0.000586088 to 0.000586088
Heightened Def Con from 0.000586095 to 0.000586095
Heightened Def Con from 0.000588493 +to 0.000588493
Heightened Def Con from 0.000588493 to 0.000588493
Heightened Def Con from 0.000588493 ++to 0.000588493
Heightened Def Con from 0.000650539 to 0.000650539
Heightened Def Con from 0.000650598 +to 0.000650598
Heightened Def Con from 0.000650895 ++to 0.000650895
Heightened Def Con from 0.000650935 to 0.000650935
Heightened Def Con from 0.000651514 to 0.000651514
Heightened Def Con from 0.000651734 to 0.000651734
Heightened Def Con from 0.000651922 +to 0.000651922
Heightened Def Con from 0.000656996 ++to 0.000656996
Heightened Def Con from 0.000658742 +++to 0.000658742
Heightened Def Con from 0.000660725 to 0.000660725
Heightened Def Con from 0.000663542 to 0.000663542
Heightened Def Con from 0.000665734 to 0.000665734
Heightened Def Con from 0.000665935 to 0.000665935
Heightened Def Con from 0.000666289 to 0.000666289
Heightened Def Con from 0.000666335 to 0.000666335
Heightened Def Con from 0.000666335 to 0.000666335
Heightened Def Con from 0.000666335 to 0.000666335
Heightened Def Con from 0.000666485 to 0.000666485
Heightened Def Con from 0.000666485 to 0.000666485
Heightened Def Con from 0.000666485 to 0.000666485
Heightened Def Con from 0.000666611 to 0.000666611
Heightened Def Con from 0.000666681 to 0.000666681
Heightened Def Con from 0.000666809 to 0.000666809
Heightened Def Con from 0.000667669 to 0.000667669
Heightened Def Con from 0.00066926 to 0.00066926
Heightened Def Con from 0.00066926 +to 0.00066926
Heightened Def Con from 0.000670446 to 0.000670446
Heightened Def Con from 0.000682687 to 0.000682687
Heightened Def Con from 0.000682735 to 0.000682735
Heightened Def Con from 0.0006841 to 0.0006841
Heightened Def Con from 0.0006841 to 0.0006841
Heightened Def Con from 0.000685729 to 0.000685729
Heightened Def Con from 0.000686094 to 0.000686094
Heightened Def Con from 0.000687149 to 0.000687149
Heightened Def Con from 0.000687456 to 0.000687456
Heightened Def Con from 0.000688657 to 0.000688657
Heightened Def Con from 0.000689725 to 0.000689725
Heightened Def Con from 0.000751335 ++to 0.000751335
Heightened Def Con from 0.000752129 to 0.000752129
Heightened Def Con from 0.00076194 to 0.00076194
Heightened Def Con from 0.000762137 to 0.000762137
Heightened Def Con from 0.000765899 to 0.000765899
Heightened Def Con from 0.000765899 +to 0.000765899
Heightened Def Con from 0.000765899 to 0.000765899
Heightened Def Con from 0.000766135 to 0.000766135
Heightened Def Con from 0.000766485 to 0.000766485
Heightened Def Con from 0.000766612 to 0.000766612
Heightened Def Con from 0.000766809 to 0.000766809
Heightened Def Con from 0.000766821 to 0.000766821
Heightened Def Con from 0.000767632 +to 0.000767632
Heightened Def Con from 0.00076926 to 0.00076926
Heightened Def Con from 0.000848544 to 0.000848544
Heightened Def Con from 0.000848582 to 0.000848582
Heightened Def Con from 0.000848942 to 0.000848942
Heightened Def Con from 0.000848942 to 0.000848942
Heightened Def Con from 0.000848942 to 0.000848942
Heightened Def Con from 0.000850834 to 0.000850834
Heightened Def Con from 0.000850937 ++to 0.000850937
Heightened Def Con from 0.000851097 +to 0.000851097
Heightened Def Con from 0.000851097 to 0.000851097
Heightened Def Con from 0.000851721 to 0.000851721
Heightened Def Con from 0.000851934 to 0.000851934
Heightened Def Con from 0.000858544 to 0.000858544
Heightened Def Con from 0.000858544 to 0.000858544
Heightened Def Con from 0.000858741 to 0.000858741
Heightened Def Con from 0.000858741 to 0.000858741
Heightened Def Con from 0.000861838 to 0.000861838
Heightened Def Con from 0.000861838 to 0.000861838
Heightened Def Con from 0.000861838 to 0.000861838
Heightened Def Con from 0.000862137 to 0.000862137
Heightened Def Con from 0.000864528 to 0.000864528
Heightened Def Con from 0.000864528 to 0.000864528
Heightened Def Con from 0.000864535 to 0.000864535
Heightened Def Con from 0.000865534 to 0.000865534
Heightened Def Con from 0.000866809 to 0.000866809
Heightened Def Con from 0.000866938 to 0.000866938
Heightened Def Con from 0.000867206 to 0.000867206
Heightened Def Con from 0.00086904 to 0.00086904
Heightened Def Con from 0.000870656 to 0.000870656
Heightened Def Con from 0.000872053 to 0.000872053
Heightened Def Con from 0.000882706 to 0.000882706
Heightened Def Con from 0.000882706 to 0.000882706
Heightened Def Con from 0.000882706 to 0.000882706
Heightened Def Con from 0.000882726 to 0.000882726
Heightened Def Con from 0.00088714 to 0.00088714
Heightened Def Con from 0.000948541 to 0.000948541
Heightened Def Con from 0.000948541 to 0.000948541
Heightened Def Con from 0.000948985 to 0.000948985
Heightened Def Con from 0.000951134 to 0.000951134
Heightened Def Con from 0.000963682 to 0.000963682
Heightened Def Con from 0.000966136 to 0.000966136
Heightened Def Con from 0.000967206 ++to 0.000967206
Heightened Def Con from 0.000967206 to 0.000967206
Heightened Def Con from 0.000967405 to 0.000967405
Heightened Def Con from 0.000968067 to 0.000968067
Heightened Def Con from 0.000968437 to 0.000968437
Heightened Def Con from 0.000969858 to 0.000969858
Heightened Def Con from 0.000970856 to 0.000970856
Heightened Def Con from 0.000986095 to 0.000986095
Heightened Def Con from 0.000986095 to 0.000986095
Heightened Def Con from 0.000986095 ++to 0.000986095
Heightened Def Con from 0.000988491 to 0.000988491
Heightened Def Con from 0.00104879 to 0.00104879
Heightened Def Con from 0.00104894 to 0.00104894
Heightened Def Con from 0.00104894 to 0.00104894
Heightened Def Con from 0.00104914 to 0.00104914
Heightened Def Con from 0.00105074 to 0.00105074
Heightened Def Con from 0.00105074 to 0.00105074
Heightened Def Con from 0.00105084 +to 0.00105084
Heightened Def Con from 0.00105102 to 0.00105102
Heightened Def Con from 0.00105109 to 0.00105109
Heightened Def Con from 0.00105133 to 0.00105133
Heightened Def Con from 0.00105172 to 0.00105172
Heightened Def Con from 0.00105173 to 0.00105173
Heightened Def Con from 0.00105173 to 0.00105173
Heightened Def Con from 0.00105193 to 0.00105193
Heightened Def Con from 0.00105689 ++to 0.00105689
Heightened Def Con from 0.00105689 to 0.00105689
Heightened Def Con from 0.00105689 to 0.00105689
Heightened Def Con from 0.00106214 to 0.00106214
Heightened Def Con from 0.00106454 to 0.00106454
Heightened Def Con from 0.00106454 ++++to 0.00106454
Heightened Def Con from 0.00106551 to 0.00106551
Heightened Def Con from 0.00106571 to 0.00106571
Heightened Def Con from 0.00106571 to 0.00106571
Heightened Def Con from 0.00106571 to 0.00106571
Heightened Def Con from 0.00106649 to 0.00106649
Heightened Def Con from 0.00106649 to 0.00106649
Heightened Def Con from 0.00106649 to 0.00106649
Heightened Def Con from 0.00106649 to 0.00106649
Heightened Def Con from 0.00106681 +to 0.00106681
Heightened Def Con from 0.00106681 to 0.00106681
Heightened Def Con from 0.00106734 to 0.00106734
Heightened Def Con from 0.00106827 to 0.00106827
Heightened Def Con from 0.00106827 to 0.00106827
Heightened Def Con from 0.00106924 to 0.00106924
Heightened Def Con from 0.00106924 to 0.00106924
Heightened Def Con from 0.00106984 to 0.00106984
Heightened Def Con from 0.00107044 to 0.00107044
Heightened Def Con from 0.00108183 +to 0.00108183
Heightened Def Con from 0.00108268 to 0.00108268
Heightened Def Con from 0.00108609 to 0.00108609
Heightened Def Con from 0.00108609 to 0.00108609
Heightened Def Con from 0.00108609 to 0.00108609
Heightened Def Con from 0.00108614 to 0.00108614
Heightened Def Con from 0.00114835 to 0.00114835
Heightened Def Con from 0.00114874 to 0.00114874
Heightened Def Con from 0.00114874 to 0.00114874
Heightened Def Con from 0.00114874 to 0.00114874
Heightened Def Con from 0.00115074 +to 0.00115074
Heightened Def Con from 0.00115074 to 0.00115074
Heightened Def Con from 0.00115093 to 0.00115093
Heightened Def Con from 0.0011511 to 0.0011511
Heightened Def Con from 0.00115133 to 0.00115133
Heightened Def Con from 0.00115133 to 0.00115133
Heightened Def Con from 0.00115213 to 0.00115213
Heightened Def Con from 0.00116434 to 0.00116434
Heightened Def Con from 0.00116434 to 0.00116434
Heightened Def Con from 0.00116532 to 0.00116532
Heightened Def Con from 0.00116532 +++to 0.00116532
Heightened Def Con from 0.00116553 to 0.00116553
Heightened Def Con from 0.00116553 ++to 0.00116553
Heightened Def Con from 0.00116553 to 0.00116553
Heightened Def Con from 0.00116593 to 0.00116593
Heightened Def Con from 0.00116613 to 0.00116613
Heightened Def Con from 0.00116654 to 0.00116654
Heightened Def Con from 0.00116723 to 0.00116723
Heightened Def Con from 0.00116741 to 0.00116741
Heightened Def Con from 0.00116741 to 0.00116741
Heightened Def Con from 0.00116741 to 0.00116741
Heightened Def Con from 0.00116807 to 0.00116807
Heightened Def Con from 0.00116846 to 0.00116846
Heightened Def Con from 0.00116866 to 0.00116866
Heightened Def Con from 0.00116886 to 0.00116886
Heightened Def Con from 0.00117125 to 0.00117125
Heightened Def Con from 0.00118609 +++to 0.00118609
Heightened Def Con from 0.00118609 to 0.00118609
Heightened Def Con from 0.00118849 to 0.00118849
Heightened Def Con from 0.00118982 to 0.00118982
Heightened Def Con from 0.00124874 +++to 0.00124874
Heightened Def Con from 0.00124894 to 0.00124894
Heightened Def Con from 0.00124897 to 0.00124897
Heightened Def Con from 0.0012508 to 0.0012508
Heightened Def Con from 0.00125213 to 0.00125213
Heightened Def Con from 0.00125213 to 0.00125213
Heightened Def Con from 0.00125874 to 0.00125874
Heightened Def Con from 0.00125874 to 0.00125874
Heightened Def Con from 0.00125874 to 0.00125874
Heightened Def Con from 0.00126434 +to 0.00126434
Heightened Def Con from 0.00126453 to 0.00126453
Heightened Def Con from 0.00126533 to 0.00126533
Heightened Def Con from 0.00126553 to 0.00126553
Heightened Def Con from 0.00126701 to 0.00126701
Heightened Def Con from 0.00126723 to 0.00126723
Heightened Def Con from 0.00126727 to 0.00126727
Heightened Def Con from 0.00126734 to 0.00126734
Heightened Def Con from 0.00126767 to 0.00126767
Heightened Def Con from 0.00126866 +to 0.00126866
Heightened Def Con from 0.00127024 to 0.00127024
Heightened Def Con from 0.00127024 to 0.00127024
Heightened Def Con from 0.00127185 to 0.00127185
Heightened Def Con from 0.00128407 to 0.00128407
Heightened Def Con from 0.00128572 to 0.00128572
Heightened Def Con from 0.00128572 +++to 0.00128572
Heightened Def Con from 0.00128572 to 0.00128572
Heightened Def Con from 0.00128609 to 0.00128609
Heightened Def Con from 0.00128609 to 0.00128609
Heightened Def Con from 0.00134858 to 0.00134858
Heightened Def Con from 0.00134897 to 0.00134897
Heightened Def Con from 0.00135055 to 0.00135055
Heightened Def Con from 0.00135055 to 0.00135055
Heightened Def Con from 0.00135089 to 0.00135089
Heightened Def Con from 0.0013511 to 0.0013511
Heightened Def Con from 0.00135192 to 0.00135192
Heightened Def Con from 0.00135194 to 0.00135194
Heightened Def Con from 0.00135214 to 0.00135214
Heightened Def Con from 0.00136234 to 0.00136234
Heightened Def Con from 0.0013638 to 0.0013638
Heightened Def Con from 0.00136425 to 0.00136425
Heightened Def Con from 0.00136533 to 0.00136533
Heightened Def Con from 0.0013659 to 0.0013659
Heightened Def Con from 0.00136594 to 0.00136594
Heightened Def Con from 0.00136648 to 0.00136648
Heightened Def Con from 0.00136661 to 0.00136661
Heightened Def Con from 0.00136703 to 0.00136703
Heightened Def Con from 0.00136714 to 0.00136714
Heightened Def Con from 0.00136723 to 0.00136723
Heightened Def Con from 0.0013676 to 0.0013676
Heightened Def Con from 0.00136824 to 0.00136824
Heightened Def Con from 0.00136844 to 0.00136844
Heightened Def Con from 0.00136846 to 0.00136846
Heightened Def Con from 0.00136906 to 0.00136906
Heightened Def Con from 0.00136906 to 0.00136906
Heightened Def Con from 0.00136926 to 0.00136926
Heightened Def Con from 0.00137024 to 0.00137024
Heightened Def Con from 0.00137165 to 0.00137165
Heightened Def Con from 0.00138268 to 0.00138268
Heightened Def Con from 0.0013857 to 0.0013857
Heightened Def Con from 0.0013857 to 0.0013857
Heightened Def Con from 0.0013857 to 0.0013857
Heightened Def Con from 0.00138863 to 0.00138863
Heightened Def Con from 0.00138971 ++to 0.00138971
Heightened Def Con from 0.00144837 to 0.00144837
Heightened Def Con from 0.00144918 to 0.00144918
Heightened Def Con from 0.00144918 to 0.00144918
Heightened Def Con from 0.00145101 to 0.00145101
Heightened Def Con from 0.00145133 to 0.00145133
Heightened Def Con from 0.00145133 to 0.00145133
Heightened Def Con from 0.00145133 to 0.00145133
Heightened Def Con from 0.00145153 to 0.00145153
Heightened Def Con from 0.00145172 ++to 0.00145172
Heightened Def Con from 0.00146214 ++++to 0.00146214
Heightened Def Con from 0.00146354 to 0.00146354
Heightened Def Con from 0.00146428 to 0.00146428
Heightened Def Con from 0.00146452 to 0.00146452
Heightened Def Con from 0.00146629 to 0.00146629
Heightened Def Con from 0.00146654 to 0.00146654
Heightened Def Con from 0.00146654 to 0.00146654
Heightened Def Con from 0.00146654 to 0.00146654
Heightened Def Con from 0.00146674 to 0.00146674
Heightened Def Con from 0.00146682 to 0.00146682
Heightened Def Con from 0.00146682 to 0.00146682
Heightened Def Con from 0.00146688 to 0.00146688
Heightened Def Con from 0.00146688 to 0.00146688
Heightened Def Con from 0.00146688 to 0.00146688
Heightened Def Con from 0.00146688 to 0.00146688
Heightened Def Con from 0.00146714 to 0.00146714
Heightened Def Con from 0.00146741 to 0.00146741
Heightened Def Con from 0.00148572 to 0.00148572
Heightened Def Con from 0.00148609 to 0.00148609
Heightened Def Con from 0.00155054 to 0.00155054
Heightened Def Con from 0.00155054 to 0.00155054
Heightened Def Con from 0.00155133 to 0.00155133
Heightened Def Con from 0.00155153 to 0.00155153
Heightened Def Con from 0.00155193 to 0.00155193
Heightened Def Con from 0.00155214 to 0.00155214
Heightened Def Con from 0.00155694 to 0.00155694
Heightened Def Con from 0.00155694 to 0.00155694
Heightened Def Con from 0.00155695 to 0.00155695
Heightened Def Con from 0.00155698 to 0.00155698
Heightened Def Con from 0.00155862 to 0.00155862
Heightened Def Con from 0.00155862 to 0.00155862
Heightened Def Con from 0.00155862 to 0.00155862
Heightened Def Con from 0.00156072 to 0.00156072
Heightened Def Con from 0.00156214 to 0.00156214
Heightened Def Con from 0.00156214 to 0.00156214
Heightened Def Con from 0.00156214 to 0.00156214
Heightened Def Con from 0.00156361 to 0.00156361
Heightened Def Con from 0.00156453 to 0.00156453
Heightened Def Con from 0.00156453 ++++to 0.00156453
Heightened Def Con from 0.00156453 to 0.00156453
Heightened Def Con from 0.00156551 to 0.00156551
Heightened Def Con from 0.00156553 to 0.00156553
Heightened Def Con from 0.00156573 to 0.00156573
Heightened Def Con from 0.00156573 to 0.00156573
Heightened Def Con from 0.00156609 to 0.00156609
Heightened Def Con from 0.00156634 to 0.00156634
Heightened Def Con from 0.00156661 to 0.00156661
Heightened Def Con from 0.00156681 to 0.00156681
Heightened Def Con from 0.00156747 to 0.00156747
Heightened Def Con from 0.00156787 to 0.00156787
Heightened Def Con from 0.00156787 to 0.00156787
Heightened Def Con from 0.00156824 to 0.00156824
Heightened Def Con from 0.00156824 to 0.00156824
Heightened Def Con from 0.00156846 to 0.00156846
Heightened Def Con from 0.00158271 to 0.00158271
Heightened Def Con from 0.00158271 ++to 0.00158271
Heightened Def Con from 0.00158864 to 0.00158864
Heightened Def Con from 0.00165083 to 0.00165083
Heightened Def Con from 0.0016513 to 0.0016513
Heightened Def Con from 0.00165153 to 0.00165153
Heightened Def Con from 0.00165153 to 0.00165153
Heightened Def Con from 0.00165172 to 0.00165172
Heightened Def Con from 0.00165192 to 0.00165192
Heightened Def Con from 0.00165213 to 0.00165213
Heightened Def Con from 0.00165213 to 0.00165213
Heightened Def Con from 0.00165213 to 0.00165213
Heightened Def Con from 0.00165213 ++to 0.00165213
Heightened Def Con from 0.00165213 to 0.00165213
Heightened Def Con from 0.0016586 to 0.0016586
Heightened Def Con from 0.00165874 to 0.00165874
Heightened Def Con from 0.00166358 to 0.00166358
Heightened Def Con from 0.00166358 ++to 0.00166358
Heightened Def Con from 0.00166358 to 0.00166358
Heightened Def Con from 0.00166428 to 0.00166428
Heightened Def Con from 0.00166454 to 0.00166454
Heightened Def Con from 0.00166553 to 0.00166553
Heightened Def Con from 0.00166553 +to 0.00166553
Heightened Def Con from 0.00166553 to 0.00166553
Heightened Def Con from 0.00166593 to 0.00166593
Heightened Def Con from 0.00166593 to 0.00166593
Heightened Def Con from 0.00166614 to 0.00166614
Heightened Def Con from 0.00166629 to 0.00166629
Heightened Def Con from 0.00166649 to 0.00166649
Heightened Def Con from 0.00166649 to 0.00166649
Heightened Def Con from 0.00166649 to 0.00166649
Heightened Def Con from 0.00166681 to 0.00166681
Heightened Def Con from 0.00166787 to 0.00166787
Heightened Def Con from 0.00166846 ++to 0.00166846
Heightened Def Con from 0.00166924 to 0.00166924
Heightened Def Con from 0.00166966 to 0.00166966
Heightened Def Con from 0.00167185 to 0.00167185
Heightened Def Con from 0.00168271 to 0.00168271
Heightened Def Con from 0.00168571 to 0.00168571
Heightened Def Con from 0.00168609 to 0.00168609
Heightened Def Con from 0.00168713 to 0.00168713
Heightened Def Con from 0.00168743 to 0.00168743
Heightened Def Con from 0.00168849 to 0.00168849
Heightened Def Con from 0.00168849 to 0.00168849
Heightened Def Con from 0.00168864 to 0.00168864
Heightened Def Con from 0.00174858 to 0.00174858
Heightened Def Con from 0.00174898 +to 0.00174898
Heightened Def Con from 0.00174898 to 0.00174898
Heightened Def Con from 0.00175094 to 0.00175094
Heightened Def Con from 0.00175094 to 0.00175094
Heightened Def Con from 0.00175102 to 0.00175102
Heightened Def Con from 0.00176214 to 0.00176214
Heightened Def Con from 0.00176214 to 0.00176214
Heightened Def Con from 0.00176434 to 0.00176434
Heightened Def Con from 0.00176453 to 0.00176453
Heightened Def Con from 0.00176553 to 0.00176553
Heightened Def Con from 0.00176553 ++to 0.00176553
Heightened Def Con from 0.00176594 to 0.00176594
Heightened Def Con from 0.00176629 to 0.00176629
Heightened Def Con from 0.00176629 to 0.00176629
Heightened Def Con from 0.00176634 to 0.00176634
Heightened Def Con from 0.00176846 to 0.00176846
Heightened Def Con from 0.00176864 to 0.00176864
Heightened Def Con from 0.00177026 to 0.00177026
Heightened Def Con from 0.00177085 to 0.00177085
Heightened Def Con from 0.00178268 to 0.00178268
Heightened Def Con from 0.00178614 +to 0.00178614
Heightened Def Con from 0.00178744 to 0.00178744
Heightened Def Con from 0.00184838 to 0.00184838
Heightened Def Con from 0.00184874 +to 0.00184874
Heightened Def Con from 0.00184874 to 0.00184874
Heightened Def Con from 0.00184894 to 0.00184894
Heightened Def Con from 0.00184914 to 0.00184914
Heightened Def Con from 0.00184937 to 0.00184937
Heightened Def Con from 0.00185075 to 0.00185075
Heightened Def Con from 0.00185153 to 0.00185153
Heightened Def Con from 0.00185172 to 0.00185172
Heightened Def Con from 0.00185689 to 0.00185689
Heightened Def Con from 0.00185689 to 0.00185689
Heightened Def Con from 0.00185874 to 0.00185874
Heightened Def Con from 0.00186211 +to 0.00186211
Heightened Def Con from 0.00186434 to 0.00186434
Heightened Def Con from 0.00186453 to 0.00186453
Heightened Def Con from 0.00186533 to 0.00186533
Heightened Def Con from 0.00186609 to 0.00186609
Heightened Def Con from 0.00186634 to 0.00186634
Heightened Def Con from 0.00186668 to 0.00186668
Heightened Def Con from 0.00186668 to 0.00186668
Heightened Def Con from 0.00186681 to 0.00186681
Heightened Def Con from 0.00186681 to 0.00186681
Heightened Def Con from 0.00186681 to 0.00186681
Heightened Def Con from 0.00186681 to 0.00186681
Heightened Def Con from 0.00186886 to 0.00186886
Heightened Def Con from 0.00186926 to 0.00186926
Heightened Def Con from 0.00188982 to 0.00188982
Heightened Def Con from 0.00194854 to 0.00194854
Heightened Def Con from 0.00194874 to 0.00194874
Heightened Def Con from 0.00195114 ++to 0.00195114
Heightened Def Con from 0.00195153 +to 0.00195153
Heightened Def Con from 0.00195153 +to 0.00195153
Heightened Def Con from 0.00195173 to 0.00195173
Heightened Def Con from 0.00195193 to 0.00195193
Heightened Def Con from 0.001962 to 0.001962
Heightened Def Con from 0.00196369 to 0.00196369
Heightened Def Con from 0.00196551 to 0.00196551
Heightened Def Con from 0.00196551 to 0.00196551
Heightened Def Con from 0.00196553 to 0.00196553
Heightened Def Con from 0.00196553 to 0.00196553
Heightened Def Con from 0.00196553 to 0.00196553
Heightened Def Con from 0.00196571 to 0.00196571
Heightened Def Con from 0.00196609 to 0.00196609
Heightened Def Con from 0.00196614 to 0.00196614
Heightened Def Con from 0.00196614 to 0.00196614
Heightened Def Con from 0.00196708 to 0.00196708
Heightened Def Con from 0.00196783 to 0.00196783
Heightened Def Con from 0.00196787 to 0.00196787
Heightened Def Con from 0.00197024 to 0.00197024
Heightened Def Con from 0.00198405 to 0.00198405
Heightened Def Con from 0.00198405 to 0.00198405
Heightened Def Con from 0.00198405 to 0.00198405
Heightened Def Con from 0.0019861 to 0.0019861
Heightened Def Con from 0.00198864 to 0.00198864
Heightened Def Con from 0.00204874 to 0.00204874
Heightened Def Con from 0.00204874 to 0.00204874
Heightened Def Con from 0.00204934 to 0.00204934
Heightened Def Con from 0.00204934 to 0.00204934
Heightened Def Con from 0.00204934 to 0.00204934
Heightened Def Con from 0.00205108 to 0.00205108
Heightened Def Con from 0.00205688 to 0.00205688
Heightened Def Con from 0.0020586 to 0.0020586
Heightened Def Con from 0.0020587 to 0.0020587
Heightened Def Con from 0.00206195 to 0.00206195
Heightened Def Con from 0.0020637 to 0.0020637
Heightened Def Con from 0.00206532 to 0.00206532
Heightened Def Con from 0.00206533 to 0.00206533
Heightened Def Con from 0.00206533 to 0.00206533
Heightened Def Con from 0.00206533 to 0.00206533
Heightened Def Con from 0.00206614 to 0.00206614
Heightened Def Con from 0.00206682 to 0.00206682
Heightened Def Con from 0.00206721 to 0.00206721
Heightened Def Con from 0.0020676 to 0.0020676
Heightened Def Con from 0.0020676 to 0.0020676
Heightened Def Con from 0.00206827 to 0.00206827
Heightened Def Con from 0.00206846 to 0.00206846
Heightened Def Con from 0.00206866 to 0.00206866
Heightened Def Con from 0.00206946 to 0.00206946
Heightened Def Con from 0.00206946 to 0.00206946
Heightened Def Con from 0.00207006 to 0.00207006
Heightened Def Con from 0.00208182 +to 0.00208182
Heightened Def Con from 0.00208182 to 0.00208182
Heightened Def Con from 0.00208405 to 0.00208405
Heightened Def Con from 0.00208571 to 0.00208571
Heightened Def Con from 0.00214858 to 0.00214858
Heightened Def Con from 0.00215055 to 0.00215055
Heightened Def Con from 0.00215055 to 0.00215055
Heightened Def Con from 0.00215133 to 0.00215133
Heightened Def Con from 0.00215151 to 0.00215151
Heightened Def Con from 0.00215153 to 0.00215153
Heightened Def Con from 0.00215153 to 0.00215153
Heightened Def Con from 0.00215173 +++to 0.00215173
Heightened Def Con from 0.00215173 to 0.00215173
Heightened Def Con from 0.00215193 to 0.00215193
Heightened Def Con from 0.00215213 to 0.00215213
Heightened Def Con from 0.00215213 to 0.00215213
Heightened Def Con from 0.00215855 to 0.00215855
Heightened Def Con from 0.00216352 to 0.00216352
Heightened Def Con from 0.00216453 to 0.00216453
Heightened Def Con from 0.00216571 to 0.00216571
Heightened Def Con from 0.00216654 to 0.00216654
Heightened Def Con from 0.00216654 to 0.00216654
Heightened Def Con from 0.00216688 to 0.00216688
Heightened Def Con from 0.00216694 to 0.00216694
Heightened Def Con from 0.00216694 to 0.00216694
Heightened Def Con from 0.00216701 to 0.00216701
Heightened Def Con from 0.00216721 to 0.00216721
Heightened Def Con from 0.00216747 to 0.00216747
Heightened Def Con from 0.00216747 to 0.00216747
Heightened Def Con from 0.00216904 to 0.00216904
Heightened Def Con from 0.00217085 to 0.00217085
Heightened Def Con from 0.00218609 to 0.00218609
Heightened Def Con from 0.00218849 +to 0.00218849
Heightened Def Con from 0.00218849 to 0.00218849
Heightened Def Con from 0.00218864 to 0.00218864
Heightened Def Con from 0.00218864 +to 0.00218864
Heightened Def Con from 0.00218864 to 0.00218864
Heightened Def Con from 0.00224874 to 0.00224874
Heightened Def Con from 0.00224894 to 0.00224894
Heightened Def Con from 0.00224894 to 0.00224894
Heightened Def Con from 0.00224914 +to 0.00224914
Heightened Def Con from 0.00225056 to 0.00225056
Heightened Def Con from 0.00225056 to 0.00225056
Heightened Def Con from 0.00225056 to 0.00225056
Heightened Def Con from 0.00225056 to 0.00225056
Heightened Def Con from 0.00225057 to 0.00225057
Heightened Def Con from 0.00225057 to 0.00225057
Heightened Def Con from 0.00225074 to 0.00225074
Heightened Def Con from 0.00225074 to 0.00225074
Heightened Def Con from 0.00225133 to 0.00225133
Heightened Def Con from 0.00225152 to 0.00225152
Heightened Def Con from 0.00225153 to 0.00225153
Heightened Def Con from 0.00225153 to 0.00225153
Heightened Def Con from 0.00225173 to 0.00225173
Heightened Def Con from 0.00225193 to 0.00225193
Heightened Def Con from 0.00225855 to 0.00225855
Heightened Def Con from 0.00226532 to 0.00226532
Heightened Def Con from 0.00226532 to 0.00226532
Heightened Def Con from 0.00226533 to 0.00226533
Heightened Def Con from 0.00226533 to 0.00226533
Heightened Def Con from 0.00226533 +to 0.00226533
Heightened Def Con from 0.00226533 to 0.00226533
Heightened Def Con from 0.00226553 to 0.00226553
Heightened Def Con from 0.00226594 to 0.00226594
Heightened Def Con from 0.00226634 to 0.00226634
Heightened Def Con from 0.00226634 to 0.00226634
Heightened Def Con from 0.00226661 to 0.00226661
Heightened Def Con from 0.00226708 ++to 0.00226708
Heightened Def Con from 0.00226767 to 0.00226767
Heightened Def Con from 0.00226884 to 0.00226884
Heightened Def Con from 0.00228183 to 0.00228183
Heightened Def Con from 0.00235059 +to 0.00235059
Heightened Def Con from 0.00235059 to 0.00235059
Heightened Def Con from 0.00235059 to 0.00235059
Heightened Def Con from 0.00235064 to 0.00235064
Heightened Def Con from 0.00235081 ++to 0.00235081
Heightened Def Con from 0.0023511 ++to 0.0023511
Heightened Def Con from 0.00235133 to 0.00235133
Heightened Def Con from 0.00235133 to 0.00235133
Heightened Def Con from 0.00235173 to 0.00235173
Heightened Def Con from 0.00235192 to 0.00235192
Heightened Def Con from 0.00235193 to 0.00235193
Heightened Def Con from 0.00235193 to 0.00235193
Heightened Def Con from 0.00235213 to 0.00235213
Heightened Def Con from 0.00236212 to 0.00236212
Heightened Def Con from 0.00236353 to 0.00236353
Heightened Def Con from 0.00236551 to 0.00236551
Heightened Def Con from 0.00236593 to 0.00236593
Heightened Def Con from 0.00236593 to 0.00236593
Heightened Def Con from 0.00236614 to 0.00236614
Heightened Def Con from 0.00236614 ++to 0.00236614
Heightened Def Con from 0.00236661 to 0.00236661
Heightened Def Con from 0.00236661 to 0.00236661
Heightened Def Con from 0.00236681 to 0.00236681
Heightened Def Con from 0.00236701 to 0.00236701
Heightened Def Con from 0.00236701 to 0.00236701
Heightened Def Con from 0.00236727 to 0.00236727
Heightened Def Con from 0.00236824 to 0.00236824
Heightened Def Con from 0.00236864 to 0.00236864
Heightened Def Con from 0.00236864 to 0.00236864
Heightened Def Con from 0.00237046 to 0.00237046
Heightened Def Con from 0.00237165 to 0.00237165
Heightened Def Con from 0.00238268 to 0.00238268
Heightened Def Con from 0.00238406 to 0.00238406
Heightened Def Con from 0.00238713 to 0.00238713
Heightened Def Con from 0.00238971 to 0.00238971
Heightened Def Con from 0.00244858 to 0.00244858
Heightened Def Con from 0.00245079 to 0.00245079
Heightened Def Con from 0.00246073 to 0.00246073
Heightened Def Con from 0.00246425 to 0.00246425
Heightened Def Con from 0.00246425 to 0.00246425
Heightened Def Con from 0.00246553 to 0.00246553
Heightened Def Con from 0.00246573 to 0.00246573
Heightened Def Con from 0.00246614 to 0.00246614
Heightened Def Con from 0.00246629 to 0.00246629
Heightened Def Con from 0.00246629 to 0.00246629
Heightened Def Con from 0.00246654 to 0.00246654
Heightened Def Con from 0.00246654 to 0.00246654
Heightened Def Con from 0.00246681 to 0.00246681
Heightened Def Con from 0.00246708 to 0.00246708
Heightened Def Con from 0.00246721 to 0.00246721
Heightened Def Con from 0.00246734 to 0.00246734
Heightened Def Con from 0.0024674 to 0.0024674
Heightened Def Con from 0.00246767 to 0.00246767
Heightened Def Con from 0.00247165 to 0.00247165
Heightened Def Con from 0.00248182 to 0.00248182
Heightened Def Con from 0.00248613 to 0.00248613
Heightened Def Con from 0.00248613 to 0.00248613
Heightened Def Con from 0.00248713 to 0.00248713
Heightened Def Con from 0.00248713 +to 0.00248713
Heightened Def Con from 0.00248743 to 0.00248743
Heightened Def Con from 0.00248864 ++to 0.00248864
Heightened Def Con from 0.00254893 to 0.00254893
Heightened Def Con from 0.002549 ++to 0.002549
Heightened Def Con from 0.00254904 +to 0.00254904
Heightened Def Con from 0.00254904 to 0.00254904
Heightened Def Con from 0.00254939 to 0.00254939
Heightened Def Con from 0.0025512 to 0.0025512
Heightened Def Con from 0.00255123 to 0.00255123
Heightened Def Con from 0.00255134 to 0.00255134
Heightened Def Con from 0.00255172 to 0.00255172
Heightened Def Con from 0.00256081 ++to 0.00256081
Heightened Def Con from 0.00256081 to 0.00256081
Heightened Def Con from 0.00256371 to 0.00256371
Heightened Def Con from 0.00256371 to 0.00256371
Heightened Def Con from 0.00256533 to 0.00256533
Heightened Def Con from 0.00256533 to 0.00256533
Heightened Def Con from 0.00256551 to 0.00256551
Heightened Def Con from 0.00256571 to 0.00256571
Heightened Def Con from 0.00256571 to 0.00256571
Heightened Def Con from 0.00256571 to 0.00256571
Heightened Def Con from 0.00256571 +to 0.00256571
Heightened Def Con from 0.00256573 to 0.00256573
Heightened Def Con from 0.00256573 to 0.00256573
Heightened Def Con from 0.00256593 to 0.00256593
Heightened Def Con from 0.00256661 to 0.00256661
Heightened Def Con from 0.00256681 to 0.00256681
Heightened Def Con from 0.00256688 to 0.00256688
Heightened Def Con from 0.0025674 to 0.0025674
Heightened Def Con from 0.0025674 +to 0.0025674
Heightened Def Con from 0.00256743 to 0.00256743
Heightened Def Con from 0.00256783 to 0.00256783
Heightened Def Con from 0.00256864 to 0.00256864
Heightened Def Con from 0.00256864 to 0.00256864
Heightened Def Con from 0.00256946 to 0.00256946
Heightened Def Con from 0.00258267 to 0.00258267
Heightened Def Con from 0.00258267 to 0.00258267
Heightened Def Con from 0.00264859 to 0.00264859
Heightened Def Con from 0.00264873 to 0.00264873
Heightened Def Con from 0.00264933 to 0.00264933
Heightened Def Con from 0.00264933 to 0.00264933
Heightened Def Con from 0.00264954 to 0.00264954
Heightened Def Con from 0.00264974 to 0.00264974
Heightened Def Con from 0.00265173 to 0.00265173
Heightened Def Con from 0.00265694 to 0.00265694
Heightened Def Con from 0.00265694 to 0.00265694
Heightened Def Con from 0.00265874 ++++to 0.00265874
Heightened Def Con from 0.00265874 to 0.00265874
Heightened Def Con from 0.00266354 to 0.00266354
Heightened Def Con from 0.00266354 to 0.00266354
Heightened Def Con from 0.00266354 to 0.00266354
Heightened Def Con from 0.00266354 to 0.00266354
Heightened Def Con from 0.00266453 to 0.00266453
Heightened Def Con from 0.00266453 +++to 0.00266453
Heightened Def Con from 0.00266553 to 0.00266553
Heightened Def Con from 0.00266553 to 0.00266553
Heightened Def Con from 0.00266668 to 0.00266668
Heightened Def Con from 0.00266727 to 0.00266727
Heightened Def Con from 0.00266747 to 0.00266747
Heightened Def Con from 0.0026676 to 0.0026676
Heightened Def Con from 0.00266803 to 0.00266803
Heightened Def Con from 0.00266803 to 0.00266803
Heightened Def Con from 0.00266846 to 0.00266846
Heightened Def Con from 0.00266846 to 0.00266846
Heightened Def Con from 0.00266884 to 0.00266884
Heightened Def Con from 0.00266884 to 0.00266884
Heightened Def Con from 0.00266984 to 0.00266984
Heightened Def Con from 0.00267085 to 0.00267085
Heightened Def Con from 0.00267105 to 0.00267105
Heightened Def Con from 0.00268571 to 0.00268571
Heightened Def Con from 0.0026861 to 0.0026861
Heightened Def Con from 0.00274838 to 0.00274838
Heightened Def Con from 0.00274838 to 0.00274838
Heightened Def Con from 0.00274854 to 0.00274854
Heightened Def Con from 0.00275068 to 0.00275068
Heightened Def Con from 0.00275093 to 0.00275093
Heightened Def Con from 0.00275093 to 0.00275093
Heightened Def Con from 0.00275113 to 0.00275113
Heightened Def Con from 0.0027586 to 0.0027586
Heightened Def Con from 0.0027586 to 0.0027586
Heightened Def Con from 0.0027587 to 0.0027587
Heightened Def Con from 0.00276214 to 0.00276214
Heightened Def Con from 0.00276454 to 0.00276454
Heightened Def Con from 0.00276454 to 0.00276454
Heightened Def Con from 0.00276454 ++++to 0.00276454
Heightened Def Con from 0.00276551 to 0.00276551
Heightened Def Con from 0.0027659 to 0.0027659
Heightened Def Con from 0.00276634 to 0.00276634
Heightened Def Con from 0.00276701 to 0.00276701
Heightened Def Con from 0.00276721 to 0.00276721
Heightened Def Con from 0.00276727 to 0.00276727
Heightened Def Con from 0.00276807 to 0.00276807
Heightened Def Con from 0.00276844 to 0.00276844
Heightened Def Con from 0.00276844 to 0.00276844
Heightened Def Con from 0.00277046 to 0.00277046
Heightened Def Con from 0.00277065 to 0.00277065
Heightened Def Con from 0.00278183 to 0.00278183
Heightened Def Con from 0.00278183 +to 0.00278183
Heightened Def Con from 0.00278183 to 0.00278183
Heightened Def Con from 0.00278743 to 0.00278743
Heightened Def Con from 0.00278849 +to 0.00278849
Heightened Def Con from 0.00278849 to 0.00278849
Heightened Def Con from 0.00284836 to 0.00284836
Heightened Def Con from 0.00284837 to 0.00284837
Heightened Def Con from 0.00285078 +to 0.00285078
Heightened Def Con from 0.00285078 to 0.00285078
Heightened Def Con from 0.00285094 to 0.00285094
Heightened Def Con from 0.00285094 to 0.00285094
Heightened Def Con from 0.00285094 ++to 0.00285094
Heightened Def Con from 0.00285094 to 0.00285094
Heightened Def Con from 0.00285133 +to 0.00285133
Heightened Def Con from 0.00285133 to 0.00285133
Heightened Def Con from 0.00285173 to 0.00285173
Heightened Def Con from 0.00285687 to 0.00285687
Heightened Def Con from 0.00285855 to 0.00285855
Heightened Def Con from 0.002862 to 0.002862
Heightened Def Con from 0.00286214 to 0.00286214
Heightened Def Con from 0.00286214 to 0.00286214
Heightened Def Con from 0.00286368 to 0.00286368
Heightened Def Con from 0.00286533 to 0.00286533
Heightened Def Con from 0.00286533 to 0.00286533
Heightened Def Con from 0.0028659 to 0.0028659
Heightened Def Con from 0.00286594 to 0.00286594
Heightened Def Con from 0.00286634 to 0.00286634
Heightened Def Con from 0.00286634 to 0.00286634
Heightened Def Con from 0.00286634 +++to 0.00286634
Heightened Def Con from 0.00286634 to 0.00286634
Heightened Def Con from 0.0028674 to 0.0028674
Heightened Def Con from 0.00286763 to 0.00286763
Heightened Def Con from 0.00286844 to 0.00286844
Heightened Def Con from 0.00286886 to 0.00286886
Heightened Def Con from 0.00286906 to 0.00286906
Heightened Def Con from 0.00287026 to 0.00287026
Heightened Def Con from 0.00287066 to 0.00287066
Heightened Def Con from 0.00287185 to 0.00287185
Heightened Def Con from 0.00287185 to 0.00287185
Heightened Def Con from 0.00288404 to 0.00288404
Heightened Def Con from 0.00295035 to 0.00295035
Heightened Def Con from 0.0029506 to 0.0029506
Heightened Def Con from 0.00295113 to 0.00295113
Heightened Def Con from 0.00295193 to 0.00295193
Heightened Def Con from 0.00295213 to 0.00295213
Heightened Def Con from 0.0029587 to 0.0029587
Heightened Def Con from 0.00296214 to 0.00296214
Heightened Def Con from 0.00296533 to 0.00296533
Heightened Def Con from 0.00296533 to 0.00296533
Heightened Def Con from 0.00296553 to 0.00296553
Heightened Def Con from 0.00296593 +to 0.00296593
Heightened Def Con from 0.00296634 +to 0.00296634
Heightened Def Con from 0.00296649 to 0.00296649
Heightened Def Con from 0.00296649 to 0.00296649
Heightened Def Con from 0.00296682 to 0.00296682
Heightened Def Con from 0.00296846 to 0.00296846
Heightened Def Con from 0.00296864 to 0.00296864
Heightened Def Con from 0.00296966 to 0.00296966
Heightened Def Con from 0.00297125 to 0.00297125
Heightened Def Con from 0.00297125 to 0.00297125
Heightened Def Con from 0.00298462 to 0.00298462
Heightened Def Con from 0.00298571 to 0.00298571
Heightened Def Con from 0.00298982 ++to 0.00298982
Heightened Def Con from 0.00304835 to 0.00304835
Heightened Def Con from 0.00305035 ++to 0.00305035
Heightened Def Con from 0.00305054 to 0.00305054
Heightened Def Con from 0.00305074 to 0.00305074
Heightened Def Con from 0.00305093 to 0.00305093
Heightened Def Con from 0.00305113 to 0.00305113
Heightened Def Con from 0.00305133 to 0.00305133
Heightened Def Con from 0.00305173 to 0.00305173
Heightened Def Con from 0.00305173 to 0.00305173
Heightened Def Con from 0.00305193 to 0.00305193
Heightened Def Con from 0.00305193 to 0.00305193
Heightened Def Con from 0.0030587 to 0.0030587
Heightened Def Con from 0.003062 to 0.003062
Heightened Def Con from 0.00306425 to 0.00306425
Heightened Def Con from 0.00306532 to 0.00306532
Heightened Def Con from 0.00306694 to 0.00306694
Heightened Def Con from 0.00306694 to 0.00306694
Heightened Def Con from 0.00306727 to 0.00306727
Heightened Def Con from 0.00306824 to 0.00306824
Heightened Def Con from 0.00307024 to 0.00307024
Heightened Def Con from 0.00307066 to 0.00307066
Heightened Def Con from 0.00307105 to 0.00307105
Heightened Def Con from 0.0030818 to 0.0030818
Heightened Def Con from 0.00308267 to 0.00308267
Heightened Def Con from 0.00308404 to 0.00308404
Heightened Def Con from 0.00308404 to 0.00308404
Heightened Def Con from 0.00308462 to 0.00308462
Heightened Def Con from 0.00308863 to 0.00308863
Heightened Def Con from 0.0030897 to 0.0030897
Heightened Def Con from 0.0030897 to 0.0030897
Heightened Def Con from 0.0030897 to 0.0030897
Heightened Def Con from 0.00308982 to 0.00308982
Heightened Def Con from 0.00315035 to 0.00315035
Heightened Def Con from 0.0031508 +to 0.0031508
Heightened Def Con from 0.00315192 to 0.00315192
Heightened Def Con from 0.00315192 to 0.00315192
Heightened Def Con from 0.00315192 +to 0.00315192
Heightened Def Con from 0.00315192 to 0.00315192
Heightened Def Con from 0.00315212 to 0.00315212
Heightened Def Con from 0.00315212 to 0.00315212
Heightened Def Con from 0.00315213 to 0.00315213
Heightened Def Con from 0.00315213 to 0.00315213
Heightened Def Con from 0.00315213 to 0.00315213
Heightened Def Con from 0.00315233 to 0.00315233
Heightened Def Con from 0.00315233 to 0.00315233
Heightened Def Con from 0.00315894 to 0.00315894
Heightened Def Con from 0.00316434 to 0.00316434
Heightened Def Con from 0.00316434 to 0.00316434
Heightened Def Con from 0.00316513 to 0.00316513
Heightened Def Con from 0.00316532 +to 0.00316532
Heightened Def Con from 0.00316532 to 0.00316532
Heightened Def Con from 0.00316532 to 0.00316532
Heightened Def Con from 0.00316573 to 0.00316573
Heightened Def Con from 0.00316694 to 0.00316694
Heightened Def Con from 0.00316714 to 0.00316714
Heightened Def Con from 0.00316721 to 0.00316721
Heightened Def Con from 0.00316747 to 0.00316747
Heightened Def Con from 0.00316763 to 0.00316763
Heightened Def Con from 0.00316787 to 0.00316787
Heightened Def Con from 0.00316787 to 0.00316787
Heightened Def Con from 0.00316803 to 0.00316803
Heightened Def Con from 0.00316824 +to 0.00316824
Heightened Def Con from 0.00317024 to 0.00317024
Heightened Def Con from 0.00318462 to 0.00318462
Heightened Def Con from 0.0031861 to 0.0031861
Heightened Def Con from 0.00318712 to 0.00318712
Heightened Def Con from 0.00318743 to 0.00318743
Heightened Def Con from 0.00318743 to 0.00318743
Heightened Def Con from 0.00318849 to 0.00318849
Heightened Def Con from 0.00318849 to 0.00318849
Heightened Def Con from 0.00318849 to 0.00318849
Heightened Def Con from 0.00318849 ++to 0.00318849
Heightened Def Con from 0.00318982 to 0.00318982
Heightened Def Con from 0.00318982 to 0.00318982
Heightened Def Con from 0.00324855 to 0.00324855
Heightened Def Con from 0.00324857 to 0.00324857
Heightened Def Con from 0.00325173 ++to 0.00325173
Heightened Def Con from 0.00325173 to 0.00325173
Heightened Def Con from 0.00325173 to 0.00325173
Heightened Def Con from 0.00325192 to 0.00325192
Heightened Def Con from 0.00325193 to 0.00325193
Heightened Def Con from 0.00325193 to 0.00325193
Heightened Def Con from 0.00325193 to 0.00325193
Heightened Def Con from 0.00325193 to 0.00325193
Heightened Def Con from 0.00325193 to 0.00325193
Heightened Def Con from 0.00325694 to 0.00325694
Heightened Def Con from 0.00325694 to 0.00325694
Heightened Def Con from 0.00325694 to 0.00325694
Heightened Def Con from 0.00325859 to 0.00325859
Heightened Def Con from 0.00325859 to 0.00325859
Heightened Def Con from 0.00325859 to 0.00325859
Heightened Def Con from 0.00325862 to 0.00325862
Heightened Def Con from 0.00325894 to 0.00325894
Heightened Def Con from 0.00326211 to 0.00326211
Heightened Def Con from 0.00326211 ++to 0.00326211
Heightened Def Con from 0.00326214 to 0.00326214
Heightened Def Con from 0.00326452 to 0.00326452
Heightened Def Con from 0.00326453 +++to 0.00326453
Heightened Def Con from 0.00326453 to 0.00326453
Heightened Def Con from 0.00326573 to 0.00326573
Heightened Def Con from 0.0032659 to 0.0032659
Heightened Def Con from 0.00326629 to 0.00326629
Heightened Def Con from 0.00326654 to 0.00326654
Heightened Def Con from 0.00326688 to 0.00326688
Heightened Def Con from 0.00326701 to 0.00326701
Heightened Def Con from 0.00326702 to 0.00326702
Heightened Def Con from 0.00326702 to 0.00326702
Heightened Def Con from 0.00326708 to 0.00326708
Heightened Def Con from 0.00326721 to 0.00326721
Heightened Def Con from 0.00326846 to 0.00326846
Heightened Def Con from 0.00326886 to 0.00326886
Heightened Def Con from 0.00326944 to 0.00326944
Heightened Def Con from 0.00327065 to 0.00327065
Heightened Def Con from 0.00328608 to 0.00328608
Heightened Def Con from 0.00328849 to 0.00328849
Heightened Def Con from 0.00328849 to 0.00328849
Heightened Def Con from 0.00328849 to 0.00328849
Heightened Def Con from 0.00328849 +to 0.00328849
Heightened Def Con from 0.00328849 to 0.00328849
Heightened Def Con from 0.00328849 to 0.00328849
Heightened Def Con from 0.00328849 to 0.00328849
Heightened Def Con from 0.00328971 to 0.00328971
Heightened Def Con from 0.00328971 to 0.00328971
Heightened Def Con from 0.00328982 to 0.00328982
Heightened Def Con from 0.00328982 to 0.00328982
Heightened Def Con from 0.00334854 to 0.00334854
Heightened Def Con from 0.00334854 to 0.00334854
Heightened Def Con from 0.00335094 to 0.00335094
Heightened Def Con from 0.00335094 to 0.00335094
Heightened Def Con from 0.00335094 to 0.00335094
Heightened Def Con from 0.00335213 to 0.00335213
Heightened Def Con from 0.00335699 to 0.00335699
Heightened Def Con from 0.00335699 to 0.00335699
Heightened Def Con from 0.00335859 to 0.00335859
Heightened Def Con from 0.00335894 to 0.00335894
Heightened Def Con from 0.00335894 to 0.00335894
Heightened Def Con from 0.00335894 to 0.00335894
Heightened Def Con from 0.00336081 to 0.00336081
Heightened Def Con from 0.00336214 to 0.00336214
Heightened Def Con from 0.00336214 to 0.00336214
Heightened Def Con from 0.00336214 to 0.00336214
Heightened Def Con from 0.00336214 to 0.00336214
Heightened Def Con from 0.00336369 to 0.00336369
Heightened Def Con from 0.00336369 to 0.00336369
Heightened Def Con from 0.00336369 to 0.00336369
Heightened Def Con from 0.00336533 to 0.00336533
Heightened Def Con from 0.00336533 to 0.00336533
Heightened Def Con from 0.00336533 to 0.00336533
Heightened Def Con from 0.00336533 to 0.00336533
Heightened Def Con from 0.00336573 to 0.00336573
Heightened Def Con from 0.00336573 to 0.00336573
Heightened Def Con from 0.00336593 +to 0.00336593
Heightened Def Con from 0.00336593 to 0.00336593
Heightened Def Con from 0.00336668 to 0.00336668
Heightened Def Con from 0.00336668 to 0.00336668
Heightened Def Con from 0.00336674 to 0.00336674
Heightened Def Con from 0.00336702 to 0.00336702
Heightened Def Con from 0.00336727 to 0.00336727
Heightened Def Con from 0.00336783 to 0.00336783
Heightened Def Con from 0.00336886 to 0.00336886
Heightened Def Con from 0.00337066 to 0.00337066
Heightened Def Con from 0.0033861 to 0.0033861
Heightened Def Con from 0.0033861 to 0.0033861
Heightened Def Con from 0.00338712 to 0.00338712
Heightened Def Con from 0.00338743 to 0.00338743
Heightened Def Con from 0.00338849 to 0.00338849
Heightened Def Con from 0.00338849 to 0.00338849
Heightened Def Con from 0.00344837 to 0.00344837
Heightened Def Con from 0.00345063 to 0.00345063
Heightened Def Con from 0.00345063 to 0.00345063
Heightened Def Con from 0.00345063 to 0.00345063
Heightened Def Con from 0.00345074 to 0.00345074
Heightened Def Con from 0.00345074 to 0.00345074
Heightened Def Con from 0.0034509 to 0.0034509
Heightened Def Con from 0.00345093 to 0.00345093
Heightened Def Con from 0.00345093 +to 0.00345093
Heightened Def Con from 0.00345093 to 0.00345093
Heightened Def Con from 0.00345093 to 0.00345093
Heightened Def Con from 0.00345111 to 0.00345111
Heightened Def Con from 0.00345133 to 0.00345133
Heightened Def Con from 0.00345133 to 0.00345133
Heightened Def Con from 0.00345193 to 0.00345193
Heightened Def Con from 0.00345193 to 0.00345193
Heightened Def Con from 0.00346071 to 0.00346071
Heightened Def Con from 0.00346366 to 0.00346366
Heightened Def Con from 0.00346424 to 0.00346424
Heightened Def Con from 0.00346424 to 0.00346424
Heightened Def Con from 0.00346629 to 0.00346629
Heightened Def Con from 0.00346634 to 0.00346634
Heightened Def Con from 0.00346708 +to 0.00346708
Heightened Def Con from 0.00346708 to 0.00346708
Heightened Def Con from 0.00346721 to 0.00346721
Heightened Def Con from 0.00346864 to 0.00346864
Heightened Def Con from 0.00346884 to 0.00346884
Heightened Def Con from 0.00346906 to 0.00346906
Heightened Def Con from 0.00347044 to 0.00347044
Heightened Def Con from 0.00347225 to 0.00347225
Heightened Def Con from 0.00348181 to 0.00348181
Heightened Def Con from 0.00348181 to 0.00348181
Heightened Def Con from 0.00348181 to 0.00348181
Heightened Def Con from 0.00348712 to 0.00348712
Heightened Def Con from 0.00354894 +to 0.00354894
Heightened Def Con from 0.00355114 to 0.00355114
Heightened Def Con from 0.00355192 to 0.00355192
Heightened Def Con from 0.00355695 to 0.00355695
Heightened Def Con from 0.00355697 to 0.00355697
Heightened Def Con from 0.00355874 to 0.00355874
Heightened Def Con from 0.00355874 +to 0.00355874
Heightened Def Con from 0.00355874 to 0.00355874
Heightened Def Con from 0.00355894 to 0.00355894
Heightened Def Con from 0.00355894 ++to 0.00355894
Heightened Def Con from 0.00356454 +++to 0.00356454
Heightened Def Con from 0.00356553 to 0.00356553
Heightened Def Con from 0.00356553 to 0.00356553
Heightened Def Con from 0.00356571 +to 0.00356571
Heightened Def Con from 0.0035659 to 0.0035659
Heightened Def Con from 0.0035659 to 0.0035659
Heightened Def Con from 0.00356674 to 0.00356674
Heightened Def Con from 0.00356708 to 0.00356708
Heightened Def Con from 0.00357024 to 0.00357024
Heightened Def Con from 0.00358571 to 0.00358571
Heightened Def Con from 0.00358571 ++to 0.00358571
Heightened Def Con from 0.00358982 to 0.00358982
Heightened Def Con from 0.00365173 to 0.00365173
Heightened Def Con from 0.00365173 to 0.00365173
Heightened Def Con from 0.00365173 to 0.00365173
Heightened Def Con from 0.00365173 to 0.00365173
Heightened Def Con from 0.0036586 to 0.0036586
Heightened Def Con from 0.00365874 ++to 0.00365874
Heightened Def Con from 0.00366194 +to 0.00366194
Heightened Def Con from 0.00366194 to 0.00366194
Heightened Def Con from 0.00366194 to 0.00366194
Heightened Def Con from 0.00366194 to 0.00366194
Heightened Def Con from 0.00366361 to 0.00366361
Heightened Def Con from 0.00366532 to 0.00366532
Heightened Def Con from 0.00366532 to 0.00366532
Heightened Def Con from 0.00366551 to 0.00366551
Heightened Def Con from 0.00366553 to 0.00366553
Heightened Def Con from 0.00366614 to 0.00366614
Heightened Def Con from 0.00366654 ++to 0.00366654
Heightened Def Con from 0.00366654 to 0.00366654
Heightened Def Con from 0.00366654 to 0.00366654
Heightened Def Con from 0.00366694 to 0.00366694
Heightened Def Con from 0.00366741 to 0.00366741
Heightened Def Con from 0.0036676 to 0.0036676
Heightened Def Con from 0.00366783 to 0.00366783
Heightened Def Con from 0.00366827 +to 0.00366827
Heightened Def Con from 0.00366884 to 0.00366884
Heightened Def Con from 0.00366966 to 0.00366966
Heightened Def Con from 0.00368613 to 0.00368613
Heightened Def Con from 0.00368613 to 0.00368613
Heightened Def Con from 0.00368849 to 0.00368849
Heightened Def Con from 0.00368849 to 0.00368849
Heightened Def Con from 0.00368849 to 0.00368849
Heightened Def Con from 0.00368849 to 0.00368849
Heightened Def Con from 0.00368971 to 0.00368971
Heightened Def Con from 0.00374859 +to 0.00374859
Heightened Def Con from 0.00375133 to 0.00375133
Heightened Def Con from 0.00375193 to 0.00375193
Heightened Def Con from 0.00375193 to 0.00375193
Heightened Def Con from 0.00375692 to 0.00375692
Heightened Def Con from 0.00375692 to 0.00375692
Heightened Def Con from 0.00375692 to 0.00375692
Heightened Def Con from 0.00375859 to 0.00375859
Heightened Def Con from 0.00376434 to 0.00376434
Heightened Def Con from 0.00376451 to 0.00376451
Heightened Def Con from 0.00376454 +++to 0.00376454
Heightened Def Con from 0.00376454 to 0.00376454
Heightened Def Con from 0.00376454 to 0.00376454
Heightened Def Con from 0.00376614 to 0.00376614
Heightened Def Con from 0.00376649 ++to 0.00376649
Heightened Def Con from 0.00376681 to 0.00376681
Heightened Def Con from 0.00376783 to 0.00376783
Heightened Def Con from 0.00376866 to 0.00376866
Heightened Def Con from 0.00376866 to 0.00376866
Heightened Def Con from 0.00376866 to 0.00376866
Heightened Def Con from 0.00377004 to 0.00377004
Heightened Def Con from 0.00377004 to 0.00377004
Heightened Def Con from 0.00377004 to 0.00377004
Heightened Def Con from 0.00377004 to 0.00377004
Heightened Def Con from 0.00377046 to 0.00377046
Heightened Def Con from 0.00377065 to 0.00377065
Heightened Def Con from 0.0037861 to 0.0037861
Heightened Def Con from 0.0037861 to 0.0037861
Heightened Def Con from 0.00378849 +to 0.00378849
Heightened Def Con from 0.00378849 to 0.00378849
Heightened Def Con from 0.0037897 to 0.0037897
Heightened Def Con from 0.00384895 to 0.00384895
Heightened Def Con from 0.00384895 to 0.00384895
Heightened Def Con from 0.00384896 to 0.00384896
Heightened Def Con from 0.00385093 +to 0.00385093
Heightened Def Con from 0.00385093 to 0.00385093
Heightened Def Con from 0.00385172 to 0.00385172
Heightened Def Con from 0.00385173 to 0.00385173
Heightened Def Con from 0.00385862 to 0.00385862
Heightened Def Con from 0.00386214 ++to 0.00386214
Heightened Def Con from 0.00386454 to 0.00386454
Heightened Def Con from 0.00386454 to 0.00386454
Heightened Def Con from 0.00386551 to 0.00386551
Heightened Def Con from 0.00386571 to 0.00386571
Heightened Def Con from 0.00386654 to 0.00386654
Heightened Def Con from 0.00386674 to 0.00386674
Heightened Def Con from 0.00386682 to 0.00386682
Heightened Def Con from 0.0038674 to 0.0038674
Heightened Def Con from 0.00386844 +to 0.00386844
Heightened Def Con from 0.00386984 to 0.00386984
Heightened Def Con from 0.00387004 +to 0.00387004
Heightened Def Con from 0.00387026 to 0.00387026
Heightened Def Con from 0.00387165 to 0.00387165
Heightened Def Con from 0.00388267 to 0.00388267
Heightened Def Con from 0.0038857 +to 0.0038857
Heightened Def Con from 0.0038857 to 0.0038857
Heightened Def Con from 0.00388849 to 0.00388849
Heightened Def Con from 0.00388982 to 0.00388982
Heightened Def Con from 0.00388982 to 0.00388982
Heightened Def Con from 0.00394917 to 0.00394917
Heightened Def Con from 0.00395109 to 0.00395109
Heightened Def Con from 0.00395193 to 0.00395193
Heightened Def Con from 0.00395193 to 0.00395193
Heightened Def Con from 0.00395193 to 0.00395193
Heightened Def Con from 0.00395193 to 0.00395193
Heightened Def Con from 0.0039621 to 0.0039621
Heightened Def Con from 0.0039621 to 0.0039621
Heightened Def Con from 0.0039621 to 0.0039621
Heightened Def Con from 0.00396214 to 0.00396214
Heightened Def Con from 0.00396434 to 0.00396434
Heightened Def Con from 0.00396533 to 0.00396533
Heightened Def Con from 0.00396533 to 0.00396533
Heightened Def Con from 0.00396614 to 0.00396614
Heightened Def Con from 0.00396614 to 0.00396614
Heightened Def Con from 0.00396649 to 0.00396649
Heightened Def Con from 0.00396674 to 0.00396674
Heightened Def Con from 0.00396674 to 0.00396674
Heightened Def Con from 0.0039676 to 0.0039676
Heightened Def Con from 0.0039676 to 0.0039676
Heightened Def Con from 0.00396864 to 0.00396864
Heightened Def Con from 0.00396884 to 0.00396884
Heightened Def Con from 0.00396886 to 0.00396886
Heightened Def Con from 0.00396926 to 0.00396926
Heightened Def Con from 0.00397105 to 0.00397105
Heightened Def Con from 0.00398982 to 0.00398982
Heightened Def Con from 0.00404854 to 0.00404854
Heightened Def Con from 0.00404917 to 0.00404917
Heightened Def Con from 0.00405133 to 0.00405133
Heightened Def Con from 0.00405691 +to 0.00405691
Heightened Def Con from 0.00405691 ++to 0.00405691
Heightened Def Con from 0.00405691 to 0.00405691
Heightened Def Con from 0.00405691 to 0.00405691
Heightened Def Con from 0.00406214 to 0.00406214
Heightened Def Con from 0.00406532 to 0.00406532
Heightened Def Con from 0.00406571 to 0.00406571
Heightened Def Con from 0.00406573 to 0.00406573
Heightened Def Con from 0.00406573 to 0.00406573
Heightened Def Con from 0.00406594 to 0.00406594
Heightened Def Con from 0.00406609 to 0.00406609
Heightened Def Con from 0.00406649 +to 0.00406649
Heightened Def Con from 0.00406661 to 0.00406661
Heightened Def Con from 0.00406662 to 0.00406662
Heightened Def Con from 0.00406674 +to 0.00406674
Heightened Def Con from 0.00406688 to 0.00406688
Heightened Def Con from 0.00406688 to 0.00406688
Heightened Def Con from 0.00406763 to 0.00406763
Heightened Def Con from 0.00406824 to 0.00406824
Heightened Def Con from 0.00407085 to 0.00407085
Heightened Def Con from 0.00407106 to 0.00407106
Heightened Def Con from 0.0040857 to 0.0040857
Heightened Def Con from 0.00408712 to 0.00408712
Heightened Def Con from 0.00408743 ++to 0.00408743
Heightened Def Con from 0.00414859 to 0.00414859
Heightened Def Con from 0.00414878 to 0.00414878
Heightened Def Con from 0.00415113 to 0.00415113
Heightened Def Con from 0.00415153 to 0.00415153
Heightened Def Con from 0.00415874 ++to 0.00415874
Heightened Def Con from 0.00416434 to 0.00416434
Heightened Def Con from 0.00416434 to 0.00416434
Heightened Def Con from 0.00416452 to 0.00416452
Heightened Def Con from 0.00416533 +to 0.00416533
Heightened Def Con from 0.00416533 +++to 0.00416533
Heightened Def Con from 0.00416533 to 0.00416533
Heightened Def Con from 0.00416553 to 0.00416553
Heightened Def Con from 0.00416573 to 0.00416573
Heightened Def Con from 0.00416634 +to 0.00416634
Heightened Def Con from 0.00416634 to 0.00416634
Heightened Def Con from 0.00416783 to 0.00416783
Heightened Def Con from 0.00416827 +to 0.00416827
Heightened Def Con from 0.00416866 to 0.00416866
Heightened Def Con from 0.00416946 to 0.00416946
Heightened Def Con from 0.00418571 to 0.00418571
Heightened Def Con from 0.00418571 to 0.00418571
Heightened Def Con from 0.00418863 to 0.00418863
Heightened Def Con from 0.00424914 to 0.00424914
Heightened Def Con from 0.00425074 to 0.00425074
Heightened Def Con from 0.00425084 to 0.00425084
Heightened Def Con from 0.00425087 to 0.00425087
Heightened Def Con from 0.00425094 to 0.00425094
Heightened Def Con from 0.00425193 to 0.00425193
Heightened Def Con from 0.00425688 to 0.00425688
Heightened Def Con from 0.00425688 to 0.00425688
Heightened Def Con from 0.00426214 to 0.00426214
Heightened Def Con from 0.00426214 to 0.00426214
Heightened Def Con from 0.00426434 to 0.00426434
Heightened Def Con from 0.00426434 to 0.00426434
Heightened Def Con from 0.00426533 to 0.00426533
Heightened Def Con from 0.00426614 to 0.00426614
Heightened Def Con from 0.00426614 to 0.00426614
Heightened Def Con from 0.00426614 to 0.00426614
Heightened Def Con from 0.00426649 to 0.00426649
Heightened Def Con from 0.00426668 to 0.00426668
Heightened Def Con from 0.00426694 to 0.00426694
Heightened Def Con from 0.00426721 to 0.00426721
Heightened Def Con from 0.00426747 to 0.00426747
Heightened Def Con from 0.00426807 to 0.00426807
Heightened Def Con from 0.00426807 to 0.00426807
Heightened Def Con from 0.00426886 to 0.00426886
Heightened Def Con from 0.00428183 to 0.00428183
Heightened Def Con from 0.00428183 to 0.00428183
Heightened Def Con from 0.00428713 to 0.00428713
Heightened Def Con from 0.00428713 to 0.00428713
Heightened Def Con from 0.00434855 to 0.00434855
Heightened Def Con from 0.00434877 to 0.00434877
Heightened Def Con from 0.00435035 to 0.00435035
Heightened Def Con from 0.00435059 to 0.00435059
Heightened Def Con from 0.00435082 to 0.00435082
Heightened Def Con from 0.00435082 ++to 0.00435082
Heightened Def Con from 0.00435153 +++to 0.00435153
Heightened Def Con from 0.00435173 ++to 0.00435173
Heightened Def Con from 0.00435212 to 0.00435212
Heightened Def Con from 0.0043587 to 0.0043587
Heightened Def Con from 0.00436194 to 0.00436194
Heightened Def Con from 0.00436214 to 0.00436214
Heightened Def Con from 0.00436424 to 0.00436424
Heightened Def Con from 0.00436551 +to 0.00436551
Heightened Def Con from 0.00436551 ++to 0.00436551
Heightened Def Con from 0.00436551 to 0.00436551
Heightened Def Con from 0.00436682 to 0.00436682
Heightened Def Con from 0.00436807 to 0.00436807
Heightened Def Con from 0.00436807 to 0.00436807
Heightened Def Con from 0.00436864 to 0.00436864
Heightened Def Con from 0.00437006 to 0.00437006
Heightened Def Con from 0.00437145 to 0.00437145
Heightened Def Con from 0.00438608 to 0.00438608
Heightened Def Con from 0.00438608 to 0.00438608
Heightened Def Con from 0.00438712 to 0.00438712
Heightened Def Con from 0.00444857 to 0.00444857
Heightened Def Con from 0.00445074 to 0.00445074
Heightened Def Con from 0.00445193 to 0.00445193
Heightened Def Con from 0.00446434 to 0.00446434
Heightened Def Con from 0.00446434 to 0.00446434
Heightened Def Con from 0.00446532 +to 0.00446532
Heightened Def Con from 0.00446532 to 0.00446532
Heightened Def Con from 0.00446553 to 0.00446553
Heightened Def Con from 0.00446571 to 0.00446571
Heightened Def Con from 0.00446634 to 0.00446634
Heightened Def Con from 0.00446661 to 0.00446661
Heightened Def Con from 0.00446674 to 0.00446674
Heightened Def Con from 0.00446674 to 0.00446674
Heightened Def Con from 0.00446674 to 0.00446674
Heightened Def Con from 0.00446702 to 0.00446702
Heightened Def Con from 0.00446767 to 0.00446767
Heightened Def Con from 0.00446783 to 0.00446783
Heightened Def Con from 0.00446787 to 0.00446787
Heightened Def Con from 0.00446827 to 0.00446827
Heightened Def Con from 0.00446926 to 0.00446926
Heightened Def Con from 0.00446926 +to 0.00446926
Heightened Def Con from 0.00446926 to 0.00446926
Heightened Def Con from 0.00447225 to 0.00447225
Heightened Def Con from 0.00448462 +to 0.00448462
Heightened Def Con from 0.00448462 to 0.00448462
Heightened Def Con from 0.00448571 to 0.00448571
Heightened Def Con from 0.00448608 to 0.00448608
Heightened Def Con from 0.00448613 to 0.00448613
Heightened Def Con from 0.00448613 to 0.00448613
Heightened Def Con from 0.00448712 to 0.00448712
Heightened Def Con from 0.00455064 ++to 0.00455064
Heightened Def Con from 0.00455068 +to 0.00455068
Heightened Def Con from 0.00455082 to 0.00455082
Heightened Def Con from 0.00455094 to 0.00455094
Heightened Def Con from 0.00455133 to 0.00455133
Heightened Def Con from 0.00455133 to 0.00455133
Heightened Def Con from 0.00455855 to 0.00455855
Heightened Def Con from 0.00455874 to 0.00455874
Heightened Def Con from 0.00456213 to 0.00456213
Heightened Def Con from 0.00456453 to 0.00456453
Heightened Def Con from 0.00456614 +to 0.00456614
Heightened Def Con from 0.00456614 to 0.00456614
Heightened Def Con from 0.00456767 to 0.00456767
Heightened Def Con from 0.00456924 to 0.00456924
Heightened Def Con from 0.00457165 to 0.00457165
Heightened Def Con from 0.00458571 to 0.00458571
Heightened Def Con from 0.00458613 to 0.00458613
Heightened Def Con from 0.00458743 to 0.00458743
Heightened Def Con from 0.00458982 to 0.00458982
Heightened Def Con from 0.00464835 to 0.00464835
Heightened Def Con from 0.00464835 to 0.00464835
Heightened Def Con from 0.00464854 to 0.00464854
Heightened Def Con from 0.00465074 to 0.00465074
Heightened Def Con from 0.00465082 to 0.00465082
Heightened Def Con from 0.00465113 to 0.00465113
Heightened Def Con from 0.00465153 to 0.00465153
Heightened Def Con from 0.00465193 +to 0.00465193
Heightened Def Con from 0.00465855 to 0.00465855
Heightened Def Con from 0.00466195 to 0.00466195
Heightened Def Con from 0.00466201 to 0.00466201
Heightened Def Con from 0.00466201 to 0.00466201
Heightened Def Con from 0.00466211 +to 0.00466211
Heightened Def Con from 0.00466425 +to 0.00466425
Heightened Def Con from 0.00466427 +to 0.00466427
Heightened Def Con from 0.00466551 to 0.00466551
Heightened Def Con from 0.00466551 to 0.00466551
Heightened Def Con from 0.00466553 to 0.00466553
Heightened Def Con from 0.00466681 to 0.00466681
Heightened Def Con from 0.00466727 to 0.00466727
Heightened Def Con from 0.00466827 to 0.00466827
Heightened Def Con from 0.00466846 to 0.00466846
Heightened Def Con from 0.00467086 to 0.00467086
Heightened Def Con from 0.00468182 to 0.00468182
Heightened Def Con from 0.00468268 to 0.00468268
Heightened Def Con from 0.00468268 to 0.00468268
Heightened Def Con from 0.0046861 to 0.0046861
Heightened Def Con from 0.0046861 to 0.0046861
Heightened Def Con from 0.00468849 to 0.00468849
Heightened Def Con from 0.00468982 +to 0.00468982
Heightened Def Con from 0.00468982 to 0.00468982
Heightened Def Con from 0.00474834 +to 0.00474834
Heightened Def Con from 0.00474834 to 0.00474834
Heightened Def Con from 0.00474878 to 0.00474878
Heightened Def Con from 0.00475064 ++to 0.00475064
Heightened Def Con from 0.00475067 to 0.00475067
Heightened Def Con from 0.00476214 to 0.00476214
Heightened Def Con from 0.00476214 to 0.00476214
Heightened Def Con from 0.00476214 to 0.00476214
Heightened Def Con from 0.00476368 to 0.00476368
Heightened Def Con from 0.00476434 to 0.00476434
Heightened Def Con from 0.00476434 to 0.00476434
Heightened Def Con from 0.00476533 to 0.00476533
Heightened Def Con from 0.00476533 to 0.00476533
Heightened Def Con from 0.00476614 ++to 0.00476614
Heightened Def Con from 0.00476614 ++to 0.00476614
Heightened Def Con from 0.00476614 to 0.00476614
Heightened Def Con from 0.00476787 to 0.00476787
Heightened Def Con from 0.00476827 to 0.00476827
Heightened Def Con from 0.00476924 to 0.00476924
Heightened Def Con from 0.00477066 to 0.00477066
Heightened Def Con from 0.00477185 to 0.00477185
Heightened Def Con from 0.00478712 to 0.00478712
Heightened Def Con from 0.00478863 to 0.00478863
Heightened Def Con from 0.00484874 to 0.00484874
Heightened Def Con from 0.00485035 to 0.00485035
Heightened Def Con from 0.00485035 to 0.00485035
Heightened Def Con from 0.00485035 to 0.00485035
Heightened Def Con from 0.00485054 to 0.00485054
Heightened Def Con from 0.00485074 to 0.00485074
Heightened Def Con from 0.00485113 to 0.00485113
Heightened Def Con from 0.00485113 to 0.00485113
Heightened Def Con from 0.00485113 to 0.00485113
Heightened Def Con from 0.00485113 to 0.00485113
Heightened Def Con from 0.00485113 +to 0.00485113
Heightened Def Con from 0.00485113 to 0.00485113
Heightened Def Con from 0.00485153 to 0.00485153
Heightened Def Con from 0.00486071 to 0.00486071
Heightened Def Con from 0.00486194 to 0.00486194
Heightened Def Con from 0.00486427 to 0.00486427
Heightened Def Con from 0.00486427 to 0.00486427
Heightened Def Con from 0.00486434 to 0.00486434
Heightened Def Con from 0.00486452 to 0.00486452
Heightened Def Con from 0.00486614 to 0.00486614
Heightened Def Con from 0.00486668 ++to 0.00486668
Heightened Def Con from 0.00486674 to 0.00486674
Heightened Def Con from 0.00486681 to 0.00486681
Heightened Def Con from 0.00486681 to 0.00486681
Heightened Def Con from 0.00486694 to 0.00486694
Heightened Def Con from 0.00486694 to 0.00486694
Heightened Def Con from 0.00486747 to 0.00486747
Heightened Def Con from 0.00486747 to 0.00486747
Heightened Def Con from 0.00486884 to 0.00486884
Heightened Def Con from 0.00486886 to 0.00486886
Heightened Def Con from 0.0048857 to 0.0048857
Heightened Def Con from 0.0048857 to 0.0048857
Heightened Def Con from 0.00488613 to 0.00488613
Heightened Def Con from 0.00488712 to 0.00488712
Heightened Def Con from 0.00488712 to 0.00488712
Heightened Def Con from 0.00488712 to 0.00488712
Heightened Def Con from 0.00488982 to 0.00488982
Heightened Def Con from 0.00488982 ++to 0.00488982
Heightened Def Con from 0.00488982 to 0.00488982
Heightened Def Con from 0.00488982 to 0.00488982
Heightened Def Con from 0.00494855 to 0.00494855
Heightened Def Con from 0.00494875 to 0.00494875
Heightened Def Con from 0.00494875 to 0.00494875
Heightened Def Con from 0.00494875 to 0.00494875
Heightened Def Con from 0.00495093 to 0.00495093
Heightened Def Con from 0.00495113 to 0.00495113
Heightened Def Con from 0.00495193 ++to 0.00495193
Heightened Def Con from 0.00495193 to 0.00495193
Heightened Def Con from 0.00495193 to 0.00495193
Heightened Def Con from 0.00495894 ++++to 0.00495894
Heightened Def Con from 0.00496199 to 0.00496199
Heightened Def Con from 0.00496214 +to 0.00496214
Heightened Def Con from 0.00496214 to 0.00496214
Heightened Def Con from 0.00496551 to 0.00496551
Heightened Def Con from 0.00496649 to 0.00496649
Heightened Def Con from 0.00496649 to 0.00496649
Heightened Def Con from 0.00496649 to 0.00496649
Heightened Def Con from 0.00496668 to 0.00496668
Heightened Def Con from 0.00496721 to 0.00496721
Heightened Def Con from 0.00496721 to 0.00496721
Heightened Def Con from 0.00496721 to 0.00496721
Heightened Def Con from 0.00496747 to 0.00496747
Heightened Def Con from 0.0049857 to 0.0049857
Heightened Def Con from 0.0049857 to 0.0049857
Heightened Def Con from 0.0049857 to 0.0049857
Heightened Def Con from 0.00498711 to 0.00498711
Heightened Def Con from 0.00498742 to 0.00498742
Heightened Def Con from 0.00498742 to 0.00498742
Heightened Def Con from 0.00504858 +to 0.00504858
Heightened Def Con from 0.00504874 to 0.00504874
Heightened Def Con from 0.00504874 to 0.00504874
Heightened Def Con from 0.00504915 to 0.00504915
Heightened Def Con from 0.00505074 to 0.00505074
Heightened Def Con from 0.00505113 to 0.00505113
Heightened Def Con from 0.00505153 to 0.00505153
Heightened Def Con from 0.00505172 +to 0.00505172
Heightened Def Con from 0.00505173 to 0.00505173
Heightened Def Con from 0.00506594 to 0.00506594
Heightened Def Con from 0.00506629 to 0.00506629
Heightened Def Con from 0.00506906 to 0.00506906
Heightened Def Con from 0.00506906 to 0.00506906
Heightened Def Con from 0.00506906 to 0.00506906
Heightened Def Con from 0.00508181 to 0.00508181
Heightened Def Con from 0.0050857 ++to 0.0050857
Heightened Def Con from 0.00508712 to 0.00508712
Heightened Def Con from 0.00508712 to 0.00508712
Heightened Def Con from 0.00514854 to 0.00514854
Heightened Def Con from 0.00514854 to 0.00514854
Heightened Def Con from 0.00515068 to 0.00515068
Heightened Def Con from 0.00515093 ++to 0.00515093
Heightened Def Con from 0.00515153 to 0.00515153
Heightened Def Con from 0.00515153 ++to 0.00515153
Heightened Def Con from 0.00515192 to 0.00515192
Heightened Def Con from 0.00515193 to 0.00515193
Heightened Def Con from 0.00515193 to 0.00515193
Heightened Def Con from 0.00515693 to 0.00515693
Heightened Def Con from 0.00515693 +++to 0.00515693
Heightened Def Con from 0.00515693 to 0.00515693
Heightened Def Con from 0.00515693 to 0.00515693
Heightened Def Con from 0.00516079 +to 0.00516079
Heightened Def Con from 0.0051637 ++to 0.0051637
Heightened Def Con from 0.00516573 +to 0.00516573
Heightened Def Con from 0.00516573 to 0.00516573
Heightened Def Con from 0.00516573 to 0.00516573
Heightened Def Con from 0.00516573 to 0.00516573
Heightened Def Con from 0.00516614 to 0.00516614
Heightened Def Con from 0.00516614 +to 0.00516614
Heightened Def Con from 0.00516614 to 0.00516614
Heightened Def Con from 0.00516614 to 0.00516614
Heightened Def Con from 0.00516614 to 0.00516614
Heightened Def Con from 0.00516629 to 0.00516629
Heightened Def Con from 0.00516682 to 0.00516682
Heightened Def Con from 0.00516694 to 0.00516694
Heightened Def Con from 0.0051674 to 0.0051674
Heightened Def Con from 0.00516747 to 0.00516747
Heightened Def Con from 0.00516767 to 0.00516767
Heightened Def Con from 0.00516767 to 0.00516767
Heightened Def Con from 0.00516783 to 0.00516783
Heightened Def Con from 0.00516787 to 0.00516787
Heightened Def Con from 0.00516906 to 0.00516906
[...]
Heightened Def Con from 0.0089587 to 0.0089587
Heightened Def Con from 0.00895874 to 0.00895874
Heightened Def Con from 0.00895874 +++to 0.00895874
Heightened Def Con from 0.00896072 to 0.00896072
Heightened Def Con from 0.0089621 to 0.0089621
Heightened Def Con from 0.00896214 to 0.00896214
Heightened Def Con from 0.00896551 to 0.00896551
Heightened Def Con from 0.00896573 to 0.00896573
Heightened Def Con from 0.00896573 to 0.00896573
Heightened Def Con from 0.00896594 to 0.00896594
Heightened Def Con from 0.00896747 to 0.00896747
Heightened Def Con from 0.00896803 to 0.00896803
Heightened Def Con from 0.00896846 to 0.00896846
Heightened Def Con from 0.00896944 to 0.00896944
Heightened Def Con from 0.00897225 to 0.00897225
Heightened Def Con from 0.00898711 to 0.00898711
Heightened Def Con from 0.00898742 to 0.00898742
Heightened Def Con from 0.00898742 to 0.00898742
Heightened Def Con from 0.00904855 to 0.00904855
Heightened Def Con from 0.00904855 to 0.00904855
Heightened Def Con from 0.00905054 to 0.00905054
Heightened Def Con from 0.00905054 to 0.00905054
Heightened Def Con from 0.00905074 to 0.00905074
Heightened Def Con from 0.00905094 to 0.00905094
Heightened Def Con from 0.00905151 to 0.00905151
Heightened Def Con from 0.00905192 to 0.00905192
Heightened Def Con from 0.00905193 to 0.00905193
Heightened Def Con from 0.00905193 to 0.00905193
Heightened Def Con from 0.00905213 to 0.00905213
Heightened Def Con from 0.00905859 to 0.00905859
Heightened Def Con from 0.00905874 to 0.00905874
Heightened Def Con from 0.00905874 to 0.00905874
Heightened Def Con from 0.00906361 to 0.00906361
Heightened Def Con from 0.00906361 +to 0.00906361
Heightened Def Con from 0.00906551 to 0.00906551
Heightened Def Con from 0.00906593 to 0.00906593
Heightened Def Con from 0.00906593 to 0.00906593
Heightened Def Con from 0.00906593 to 0.00906593
Heightened Def Con from 0.00906609 to 0.00906609
Heightened Def Con from 0.00906682 to 0.00906682
Heightened Def Con from 0.00906682 to 0.00906682
Heightened Def Con from 0.00906727 to 0.00906727
Heightened Def Con from 0.00907004 to 0.00907004
Heightened Def Con from 0.00907024 to 0.00907024
Heightened Def Con from 0.00907046 to 0.00907046
Heightened Def Con from 0.00907046 +to 0.00907046
Heightened Def Con from 0.00907046 +to 0.00907046
Heightened Def Con from 0.00907105 to 0.00907105
Heightened Def Con from 0.00908179 to 0.00908179
Heightened Def Con from 0.0090857 to 0.0090857
Heightened Def Con from 0.0090857 to 0.0090857
Heightened Def Con from 0.00908612 to 0.00908612
Heightened Def Con from 0.00908847 to 0.00908847
Heightened Def Con from 0.00908982 to 0.00908982
Heightened Def Con from 0.00914854 to 0.00914854
Heightened Def Con from 0.00914859 to 0.00914859
Heightened Def Con from 0.00914894 to 0.00914894
Heightened Def Con from 0.00914914 to 0.00914914
Heightened Def Con from 0.00914914 to 0.00914914
Heightened Def Con from 0.00914934 to 0.00914934
Heightened Def Con from 0.00914938 to 0.00914938
Heightened Def Con from 0.00915103 to 0.00915103
Heightened Def Con from 0.00915103 to 0.00915103
Heightened Def Con from 0.00915103 to 0.00915103
Heightened Def Con from 0.00915151 to 0.00915151
Heightened Def Con from 0.00915193 to 0.00915193
Heightened Def Con from 0.00915193 to 0.00915193
Heightened Def Con from 0.00915193 to 0.00915193
Heightened Def Con from 0.00915691 to 0.00915691
Heightened Def Con from 0.00915855 to 0.00915855
Heightened Def Con from 0.00915855 to 0.00915855
Heightened Def Con from 0.00916371 to 0.00916371
Heightened Def Con from 0.00916434 +to 0.00916434
Heightened Def Con from 0.00916434 +to 0.00916434
Heightened Def Con from 0.00916553 ++to 0.00916553
Heightened Def Con from 0.00916573 to 0.00916573
Heightened Def Con from 0.00916634 to 0.00916634
Heightened Def Con from 0.00916674 to 0.00916674
Heightened Def Con from 0.00916674 to 0.00916674
Heightened Def Con from 0.00916701 +to 0.00916701
Heightened Def Con from 0.00916727 to 0.00916727
Heightened Def Con from 0.00916758 to 0.00916758
Heightened Def Con from 0.00917044 to 0.00917044
Heightened Def Con from 0.00918403 to 0.00918403
Heightened Def Con from 0.00918461 to 0.00918461
Heightened Def Con from 0.0091857 ++to 0.0091857
Heightened Def Con from 0.0091857 to 0.0091857
Heightened Def Con from 0.00918711 to 0.00918711
Heightened Def Con from 0.00918842 to 0.00918842
Heightened Def Con from 0.00918863 to 0.00918863
Heightened Def Con from 0.00924854 to 0.00924854
Heightened Def Con from 0.00924854 to 0.00924854
Heightened Def Con from 0.00924854 to 0.00924854
Heightened Def Con from 0.00924854 to 0.00924854
Heightened Def Con from 0.00924854 to 0.00924854
Heightened Def Con from 0.00924874 to 0.00924874
Heightened Def Con from 0.00924913 to 0.00924913
Heightened Def Con from 0.00925114 to 0.00925114
Heightened Def Con from 0.00925114 to 0.00925114
Heightened Def Con from 0.00925153 to 0.00925153
Heightened Def Con from 0.00925172 to 0.00925172
Heightened Def Con from 0.00925172 +to 0.00925172
Heightened Def Con from 0.00925172 to 0.00925172
Heightened Def Con from 0.00925172 to 0.00925172
Heightened Def Con from 0.00925172 ++to 0.00925172
Heightened Def Con from 0.00925172 to 0.00925172
Heightened Def Con from 0.00925173 to 0.00925173
Heightened Def Con from 0.00925855 to 0.00925855
Heightened Def Con from 0.00925855 to 0.00925855
Heightened Def Con from 0.00925871 to 0.00925871
Heightened Def Con from 0.00926073 to 0.00926073
Heightened Def Con from 0.00926214 ++to 0.00926214
Heightened Def Con from 0.00926214 to 0.00926214
Heightened Def Con from 0.00926454 to 0.00926454
Heightened Def Con from 0.00926533 to 0.00926533
Heightened Def Con from 0.00926533 to 0.00926533
Heightened Def Con from 0.00926533 to 0.00926533
Heightened Def Con from 0.00926533 to 0.00926533
Heightened Def Con from 0.00926571 to 0.00926571
Heightened Def Con from 0.00926571 to 0.00926571
Heightened Def Con from 0.00926593 to 0.00926593
Heightened Def Con from 0.00926609 to 0.00926609
Heightened Def Con from 0.00926629 to 0.00926629
Heightened Def Con from 0.00926629 to 0.00926629
Heightened Def Con from 0.00926634 +to 0.00926634
Heightened Def Con from 0.00926649 to 0.00926649
Heightened Def Con from 0.00926674 to 0.00926674
Heightened Def Con from 0.00926674 to 0.00926674
Heightened Def Con from 0.00926701 to 0.00926701
Heightened Def Con from 0.00926701 to 0.00926701
Heightened Def Con from 0.00926701 to 0.00926701
Heightened Def Con from 0.00926783 to 0.00926783
Heightened Def Con from 0.00926807 +to 0.00926807
Heightened Def Con from 0.00928461 to 0.00928461
Heightened Def Con from 0.0092857 to 0.0092857
Heightened Def Con from 0.00928743 to 0.00928743
Heightened Def Con from 0.00928863 to 0.00928863
Heightened Def Con from 0.00928863 to 0.00928863
Heightened Def Con from 0.0092897 to 0.0092897
Heightened Def Con from 0.00934834 to 0.00934834
Heightened Def Con from 0.00934834 to 0.00934834
Heightened Def Con from 0.00934879 to 0.00934879
Heightened Def Con from 0.00934879 to 0.00934879
Heightened Def Con from 0.00934914 to 0.00934914
Heightened Def Con from 0.00934914 to 0.00934914
Heightened Def Con from 0.00935074 ++to 0.00935074
Heightened Def Con from 0.00935094 to 0.00935094
Heightened Def Con from 0.00935113 to 0.00935113
Heightened Def Con from 0.00935113 to 0.00935113
Heightened Def Con from 0.00935133 to 0.00935133
Heightened Def Con from 0.00935152 to 0.00935152
Heightened Def Con from 0.00935855 to 0.00935855
Heightened Def Con from 0.00935869 to 0.00935869
Heightened Def Con from 0.00935893 to 0.00935893
Heightened Def Con from 0.0093608 to 0.0093608
Heightened Def Con from 0.0093608 to 0.0093608
Heightened Def Con from 0.0093608 to 0.0093608
Heightened Def Con from 0.00936454 +++to 0.00936454
Heightened Def Con from 0.00936533 to 0.00936533
Heightened Def Con from 0.00936553 to 0.00936553
Heightened Def Con from 0.00936593 to 0.00936593
Heightened Def Con from 0.00936681 to 0.00936681
Heightened Def Con from 0.00936682 +to 0.00936682
Heightened Def Con from 0.00936721 to 0.00936721
Heightened Def Con from 0.00936721 to 0.00936721
Heightened Def Con from 0.00936846 to 0.00936846
Heightened Def Con from 0.00937006 to 0.00937006
Heightened Def Con from 0.00938178 +to 0.00938178
Heightened Def Con from 0.00938178 ++to 0.00938178
Heightened Def Con from 0.00938178 to 0.00938178
Heightened Def Con from 0.00938402 +++to 0.00938402
Heightened Def Con from 0.00938461 to 0.00938461
Heightened Def Con from 0.00938608 to 0.00938608
Heightened Def Con from 0.00938608 to 0.00938608
Heightened Def Con from 0.00938608 to 0.00938608
Heightened Def Con from 0.00938742 +to 0.00938742
Heightened Def Con from 0.00938742 to 0.00938742
Heightened Def Con from 0.00938847 to 0.00938847
Heightened Def Con from 0.00938849 to 0.00938849
Heightened Def Con from 0.0094506 to 0.0094506
Heightened Def Con from 0.00945074 to 0.00945074
Heightened Def Con from 0.00945111 to 0.00945111
Heightened Def Con from 0.00945133 to 0.00945133
Heightened Def Con from 0.00945133 +to 0.00945133
Heightened Def Con from 0.00945133 to 0.00945133
Heightened Def Con from 0.00945152 to 0.00945152
Heightened Def Con from 0.00945173 to 0.00945173
Heightened Def Con from 0.00945173 to 0.00945173
Heightened Def Con from 0.00945173 to 0.00945173
Heightened Def Con from 0.00945173 to 0.00945173
Heightened Def Con from 0.00945192 to 0.00945192
Heightened Def Con from 0.00945213 to 0.00945213
Heightened Def Con from 0.00945213 to 0.00945213
Heightened Def Con from 0.00945213 to 0.00945213
Heightened Def Con from 0.00945213 to 0.00945213
Heightened Def Con from 0.00945692 to 0.00945692
Heightened Def Con from 0.00945692 to 0.00945692
Heightened Def Con from 0.0094586 to 0.0094586
Heightened Def Con from 0.00946353 to 0.00946353
Heightened Def Con from 0.00946609 to 0.00946609
Heightened Def Con from 0.00946614 to 0.00946614
Heightened Def Con from 0.00946614 to 0.00946614
Heightened Def Con from 0.00946634 ++to 0.00946634
Heightened Def Con from 0.00946634 ++to 0.00946634
Heightened Def Con from 0.00946649 to 0.00946649
Heightened Def Con from 0.00946654 to 0.00946654
Heightened Def Con from 0.00946654 ++to 0.00946654
Heightened Def Con from 0.00946654 to 0.00946654
Heightened Def Con from 0.00946668 to 0.00946668
Heightened Def Con from 0.00946668 to 0.00946668
Heightened Def Con from 0.00946708 ++to 0.00946708
Heightened Def Con from 0.00946741 to 0.00946741
Heightened Def Con from 0.00946767 to 0.00946767
Heightened Def Con from 0.00946906 to 0.00946906
Heightened Def Con from 0.00946966 to 0.00946966
Heightened Def Con from 0.00947165 to 0.00947165
Heightened Def Con from 0.0094818 to 0.0094818
Heightened Def Con from 0.00948403 to 0.00948403
Heightened Def Con from 0.0094861 to 0.0094861
Heightened Def Con from 0.00948841 to 0.00948841
Heightened Def Con from 0.00948863 to 0.00948863
Heightened Def Con from 0.00948863 +to 0.00948863
Heightened Def Con from 0.00948982 to 0.00948982
Heightened Def Con from 0.00955068 to 0.00955068
Heightened Def Con from 0.00955068 to 0.00955068
Heightened Def Con from 0.00955074 to 0.00955074
Heightened Def Con from 0.00955093 to 0.00955093
Heightened Def Con from 0.00955093 +++to 0.00955093
Heightened Def Con from 0.00955111 to 0.00955111
Heightened Def Con from 0.00955193 ++to 0.00955193
Heightened Def Con from 0.009562 ++to 0.009562
Heightened Def Con from 0.00956214 ++++to 0.00956214
Heightened Def Con from 0.00956425 to 0.00956425
Heightened Def Con from 0.00956452 to 0.00956452
Heightened Def Con from 0.00956553 to 0.00956553
Heightened Def Con from 0.0095659 to 0.0095659
Heightened Def Con from 0.0095659 to 0.0095659
Heightened Def Con from 0.00956629 to 0.00956629
Heightened Def Con from 0.00956629 to 0.00956629
Heightened Def Con from 0.00956681 to 0.00956681
Heightened Def Con from 0.00956682 to 0.00956682
Heightened Def Con from 0.00958179 to 0.00958179
Heightened Def Con from 0.00958179 to 0.00958179
Heightened Def Con from 0.00958267 to 0.00958267
Heightened Def Con from 0.00958267 to 0.00958267
Heightened Def Con from 0.00958267 to 0.00958267
Heightened Def Con from 0.00958461 to 0.00958461
Heightened Def Con from 0.00958461 to 0.00958461
Heightened Def Con from 0.00958461 to 0.00958461
Heightened Def Con from 0.00958461 to 0.00958461
Heightened Def Con from 0.00958742 to 0.00958742
Heightened Def Con from 0.00958847 to 0.00958847
Heightened Def Con from 0.00958863 to 0.00958863
Heightened Def Con from 0.00964835 to 0.00964835
Heightened Def Con from 0.00964835 to 0.00964835
Heightened Def Con from 0.00964898 to 0.00964898
Heightened Def Con from 0.00964898 to 0.00964898
Heightened Def Con from 0.00965055 to 0.00965055
Heightened Def Con from 0.00965133 to 0.00965133
Heightened Def Con from 0.00965133 to 0.00965133
Heightened Def Con from 0.00965133 to 0.00965133
Heightened Def Con from 0.00965153 to 0.00965153
Heightened Def Con from 0.00965687 +++to 0.00965687
Heightened Def Con from 0.00965687 to 0.00965687
Heightened Def Con from 0.0096587 to 0.0096587
Heightened Def Con from 0.00966195 to 0.00966195
Heightened Def Con from 0.00966453 to 0.00966453
Heightened Def Con from 0.00966532 to 0.00966532
Heightened Def Con from 0.00966609 to 0.00966609
Heightened Def Con from 0.00966827 to 0.00966827
Heightened Def Con from 0.00966946 to 0.00966946
Heightened Def Con from 0.00966984 to 0.00966984
Heightened Def Con from 0.00974858 to 0.00974858
Heightened Def Con from 0.00975074 to 0.00975074
Heightened Def Con from 0.00975113 to 0.00975113
Heightened Def Con from 0.00975133 to 0.00975133
Heightened Def Con from 0.00975152 to 0.00975152
Heightened Def Con from 0.00975153 ++to 0.00975153
Heightened Def Con from 0.00975173 to 0.00975173
Heightened Def Con from 0.00975173 to 0.00975173
Heightened Def Con from 0.00975699 to 0.00975699
Heightened Def Con from 0.00975699 to 0.00975699
Heightened Def Con from 0.00975862 to 0.00975862
Heightened Def Con from 0.00975862 to 0.00975862
Heightened Def Con from 0.00975874 to 0.00975874
Heightened Def Con from 0.00975874 to 0.00975874
Heightened Def Con from 0.00975894 to 0.00975894
Heightened Def Con from 0.00975894 to 0.00975894
Heightened Def Con from 0.00975894 to 0.00975894
Heightened Def Con from 0.00975894 to 0.00975894
Heightened Def Con from 0.00975894 to 0.00975894
Heightened Def Con from 0.009762 to 0.009762
Heightened Def Con from 0.009762 ++to 0.009762
Heightened Def Con from 0.00976211 to 0.00976211
Heightened Def Con from 0.00976211 to 0.00976211
Heightened Def Con from 0.00976214 to 0.00976214
Heightened Def Con from 0.00976367 +++to 0.00976367
Heightened Def Con from 0.00976573 to 0.00976573
Heightened Def Con from 0.0097659 to 0.0097659
Heightened Def Con from 0.00976609 to 0.00976609
Heightened Def Con from 0.00976609 to 0.00976609
Heightened Def Con from 0.00976629 to 0.00976629
Heightened Def Con from 0.00976654 to 0.00976654
Heightened Def Con from 0.00976654 to 0.00976654
Heightened Def Con from 0.00976674 to 0.00976674
Heightened Def Con from 0.00976674 to 0.00976674
Heightened Def Con from 0.00976682 to 0.00976682
Heightened Def Con from 0.00976688 to 0.00976688
Heightened Def Con from 0.00976694 to 0.00976694
Heightened Def Con from 0.00976694 to 0.00976694
Heightened Def Con from 0.00976708 to 0.00976708
Heightened Def Con from 0.00976721 to 0.00976721
Heightened Def Con from 0.00976743 +to 0.00976743
Heightened Def Con from 0.00976763 +to 0.00976763
Heightened Def Con from 0.00976966 to 0.00976966
Heightened Def Con from 0.0097857 to 0.0097857
Heightened Def Con from 0.0097861 to 0.0097861
Heightened Def Con from 0.0097861 to 0.0097861
Heightened Def Con from 0.00978712 to 0.00978712
Heightened Def Con from 0.00978712 to 0.00978712
Heightened Def Con from 0.00978712 to 0.00978712
Heightened Def Con from 0.00984838 to 0.00984838
Heightened Def Con from 0.00984874 +to 0.00984874
Heightened Def Con from 0.00984874 to 0.00984874
Heightened Def Con from 0.00985055 to 0.00985055
Heightened Def Con from 0.00985074 to 0.00985074
Heightened Def Con from 0.00985074 +++to 0.00985074
Heightened Def Con from 0.00985133 to 0.00985133
Heightened Def Con from 0.00985133 to 0.00985133
Heightened Def Con from 0.00985133 to 0.00985133
Heightened Def Con from 0.00985133 to 0.00985133
Heightened Def Con from 0.00985133 to 0.00985133
Heightened Def Con from 0.00985173 +++to 0.00985173
Heightened Def Con from 0.00985173 to 0.00985173
Heightened Def Con from 0.00985192 to 0.00985192
Heightened Def Con from 0.00985193 to 0.00985193
Heightened Def Con from 0.00985193 to 0.00985193
Heightened Def Con from 0.00985691 ++to 0.00985691
Heightened Def Con from 0.00985855 to 0.00985855
Heightened Def Con from 0.00985855 to 0.00985855
Heightened Def Con from 0.00985855 to 0.00985855
Heightened Def Con from 0.00985855 to 0.00985855
Heightened Def Con from 0.009862 to 0.009862
Heightened Def Con from 0.00986609 +to 0.00986609
Heightened Def Con from 0.00986609 to 0.00986609
Heightened Def Con from 0.00986649 to 0.00986649
Heightened Def Con from 0.00986654 to 0.00986654
Heightened Def Con from 0.00986694 to 0.00986694
Heightened Def Con from 0.00986694 to 0.00986694
Heightened Def Con from 0.00986694 to 0.00986694
Heightened Def Con from 0.00986714 to 0.00986714
Heightened Def Con from 0.00986723 to 0.00986723
Heightened Def Con from 0.00986783 to 0.00986783
Heightened Def Con from 0.00986964 to 0.00986964
Heightened Def Con from 0.00987004 to 0.00987004
Heightened Def Con from 0.00988178 to 0.00988178
Heightened Def Con from 0.00988178 to 0.00988178
Heightened Def Con from 0.00988178 to 0.00988178
Heightened Def Con from 0.00988611 to 0.00988611
Heightened Def Con from 0.00988711 to 0.00988711
Heightened Def Con from 0.00988711 to 0.00988711
Heightened Def Con from 0.00988711 to 0.00988711
Heightened Def Con from 0.00988841 to 0.00988841
Heightened Def Con from 0.00988849 to 0.00988849
Heightened Def Con from 0.00988849 +++to 0.00988849
Heightened Def Con from 0.00988849 to 0.00988849
Heightened Def Con from 0.00988863 to 0.00988863
Heightened Def Con from 0.00995035 to 0.00995035
Heightened Def Con from 0.00995035 to 0.00995035
Heightened Def Con from 0.00995035 to 0.00995035
Heightened Def Con from 0.00995054 to 0.00995054
Heightened Def Con from 0.00995054 ++to 0.00995054
Heightened Def Con from 0.00995074 to 0.00995074
Heightened Def Con from 0.0099513 +to 0.0099513
Heightened Def Con from 0.00995213 to 0.00995213
Heightened Def Con from 0.00995699 to 0.00995699
Heightened Def Con from 0.00995699 to 0.00995699
Heightened Def Con from 0.00995699 to 0.00995699
Heightened Def Con from 0.00995874 +++to 0.00995874
Heightened Def Con from 0.00996353 to 0.00996353
Heightened Def Con from 0.00996452 to 0.00996452
Heightened Def Con from 0.00996593 to 0.00996593
Heightened Def Con from 0.00996681 to 0.00996681
Heightened Def Con from 0.00996681 to 0.00996681
Heightened Def Con from 0.00996714 to 0.00996714
Heightened Def Con from 0.00996727 to 0.00996727
Heightened Def Con from 0.00996727 to 0.00996727
Heightened Def Con from 0.00996727 to 0.00996727
Heightened Def Con from 0.00996866 to 0.00996866
Heightened Def Con from 0.00996986 to 0.00996986
Heightened Def Con from 0.00998404 to 0.00998404
Heightened Def Con from 0.00998404 +to 0.00998404
Heightened Def Con from 0.0099857 to 0.0099857
Heightened Def Con from 0.0099857 to 0.0099857
Heightened Def Con from 0.0099857 to 0.0099857
Heightened Def Con from 0.0099857 to 0.0099857
Heightened Def Con from 0.0099857 to 0.0099857
Heightened Def Con from 0.0099857 to 0.0099857
Heightened Def Con from 0.00998612 to 0.00998612
Heightened Def Con from 0.00998849 to 0.00998849

Date: Mon Mar 23 22:21:26 2020
Total elapsed time: 74.897 seconds.

tnom = 27
temp = 27
method = modified trap
totiter = 11853821
traniter = 11844841
tranpoints = 3469806
accept = 2384111
rejected = 1089404
matrix size = 63
fillins = 191
solver = Normal
Matrix Compiler1: 16.99 KB object code size  1.9/1.1/[0.5]
Matrix Compiler2: 8.63 KB object code size  0.6/0.7/[0.3]

